ejm_31
     RDKit          3D

 21 22  0  0  0  0  0  0  0  0999 V2000
    6.4223    4.9399    1.6795 C   0  0  0  0  0  0  0  0  0  0  0  0
    7.3141    6.0072    1.6296 C   0  0  0  0  0  0  0  0  0  0  0  0
    7.1406    7.0223    0.6950 C   0  0  0  0  0  0  0  0  0  0  0  0
    6.0676    6.9716   -0.2134 C   0  0  0  0  0  0  0  0  0  0  0  0
    5.1639    5.8932   -0.1463 C   0  0  0  0  0  0  0  0  0  0  0  0
    5.3543    4.8887    0.7939 C   0  0  0  0  0  0  0  0  0  0  0  0
    3.8113    5.8160   -1.2385 Cl  0  0  0  0  0  0  0  0  0  0  0  0
    5.8535    8.0154   -1.2424 C   0  0  0  0  0  0  0  0  0  0  0  0
    6.1620    7.7724   -2.3973 O   0  0  0  0  0  0  0  0  0  0  0  0
    5.2863    9.1770   -0.8633 N   0  0  0  0  0  0  0  0  0  0  0  0
    4.9260   10.2791   -1.6459 C   0  0  0  0  0  0  0  0  0  0  0  0
    4.8409   10.3005   -3.0519 C   0  0  0  0  0  0  0  0  0  0  0  0
    4.3637   11.4458   -3.6821 C   0  0  0  0  0  0  0  0  0  0  0  0
    3.9997   12.5140   -2.9781 N   0  0  0  0  0  0  0  0  0  0  0  0
    4.0707   12.5422   -1.6480 C   0  0  0  0  0  0  0  0  0  0  0  0
    4.4888   11.4041   -0.9547 C   0  0  0  0  0  0  0  0  0  0  0  0
    3.6143   13.6740   -0.9630 N   0  0  0  0  0  0  0  0  0  0  0  0
    4.0002   14.0932    0.2711 C   0  0  0  0  0  0  0  0  0  0  0  0
    4.8357   13.5085    0.9409 O   0  0  0  0  0  0  0  0  0  0  0  0
    3.3200   15.3310    0.8023 C   0  0  0  0  0  0  0  0  0  0  0  0
    8.2425    8.3564    0.6808 Cl  0  0  0  0  0  0  0  0  0  0  0  0
  1  2  2  0
  1  6  1  0
  2  3  1  0
  3  4  2  0
  3 21  1  0
  4  5  1  0
  4  8  1  0
  5  6  2  0
  5  7  1  0
  8  9  2  0
  8 10  1  0
 10 11  1  0
 11 12  2  0
 11 16  1  0
 12 13  1  0
 13 14  2  0
 14 15  1  0
 15 16  2  0
 15 17  1  0
 17 18  1  0
 18 19  2  0
 18 20  1  0
M  END
