ejm_46
     RDKit          3D

 23 25  0  0  0  0  0  0  0  0999 V2000
   21.2068    6.4085   24.4675 C   0  0  0  0  0  0  0  0  0  0  0  0
   22.0986    7.4758   24.4176 C   0  0  0  0  0  0  0  0  0  0  0  0
   21.9250    8.4909   23.4830 C   0  0  0  0  0  0  0  0  0  0  0  0
   20.8520    8.4402   22.5746 C   0  0  0  0  0  0  0  0  0  0  0  0
   19.9484    7.3618   22.6417 C   0  0  0  0  0  0  0  0  0  0  0  0
   20.1388    6.3573   23.5819 C   0  0  0  0  0  0  0  0  0  0  0  0
   18.5958    7.2845   21.5495 Cl  0  0  0  0  0  0  0  0  0  0  0  0
   20.6380    9.4840   21.5456 C   0  0  0  0  0  0  0  0  0  0  0  0
   20.9465    9.2410   20.3908 O   0  0  0  0  0  0  0  0  0  0  0  0
   20.0708   10.6456   21.9248 N   0  0  0  0  0  0  0  0  0  0  0  0
   19.7104   11.7476   21.1422 C   0  0  0  0  0  0  0  0  0  0  0  0
   19.6254   11.7691   19.7361 C   0  0  0  0  0  0  0  0  0  0  0  0
   19.1482   12.9144   19.1059 C   0  0  0  0  0  0  0  0  0  0  0  0
   18.7842   13.9826   19.8099 N   0  0  0  0  0  0  0  0  0  0  0  0
   18.8552   14.0108   21.1400 C   0  0  0  0  0  0  0  0  0  0  0  0
   19.2732   12.8727   21.8333 C   0  0  0  0  0  0  0  0  0  0  0  0
   18.3988   15.1426   21.8250 N   0  0  0  0  0  0  0  0  0  0  0  0
   18.7847   15.5618   23.0592 C   0  0  0  0  0  0  0  0  0  0  0  0
   19.6202   14.9771   23.7289 O   0  0  0  0  0  0  0  0  0  0  0  0
   18.1045   16.7996   23.5904 C   0  0  0  0  0  0  0  0  0  0  0  0
   18.1591   17.1029   25.0912 C   0  0  0  0  0  0  0  0  0  0  0  0
   18.9643   17.9501   24.1042 C   0  0  0  0  0  0  0  0  0  0  0  0
   23.0270    9.8250   23.4688 Cl  0  0  0  0  0  0  0  0  0  0  0  0
  1  2  2  0
  1  6  1  0
  2  3  1  0
  3  4  2  0
  3 23  1  0
  4  5  1  0
  4  8  1  0
  5  6  2  0
  5  7  1  0
  8  9  2  0
  8 10  1  0
 10 11  1  0
 11 12  2  0
 11 16  1  0
 12 13  1  0
 13 14  2  0
 14 15  1  0
 15 16  2  0
 15 17  1  0
 17 18  1  0
 18 19  2  0
 18 20  1  0
 20 21  1  0
 20 22  1  0
 21 22  1  0
M  END
