1h1q
  MOE2020           3D

 45 48  0  0  0  0  0  0  0  0999 V2000
   -3.7962   -8.8862   -8.5498 C   0  0  0  0  0  0  0  0  0  0  0  0
   -7.0711   -6.1127   -7.7786 C   0  0  0  0  0  0  0  0  0  0  0  0
   -3.9889   -9.6591   -4.6074 C   0  0  0  0  0  0  0  0  0  0  0  0
   -3.8048   -9.5190   -3.0962 C   0  0  0  0  0  0  0  0  0  0  0  0
   -3.1950  -10.8231   -2.5463 C   0  0  0  0  0  0  0  0  0  0  0  0
   -2.8918  -10.7183   -1.0498 C   0  0  0  0  0  0  0  0  0  0  0  0
   -1.9608   -9.5383   -0.7487 C   0  0  0  0  0  0  0  0  0  0  0  0
   -2.5806   -8.2270   -1.2543 C   0  0  0  0  0  0  0  0  0  0  0  0
   -2.9050   -8.3078   -2.7554 C   0  0  0  0  0  0  0  0  0  0  0  0
   -0.0077  -11.8646   -8.8755 C   0  0  0  0  0  0  0  0  0  0  0  0
    0.6058  -11.4295   -7.6863 C   0  0  0  0  0  0  0  0  0  0  0  0
    0.0973  -10.3109   -7.0026 C   0  0  0  0  0  0  0  0  0  0  0  0
   -1.0335   -9.6414   -7.5049 C   0  0  0  0  0  0  0  0  0  0  0  0
   -3.9226   -9.1362   -7.2460 N   0  0  0  0  0  0  0  0  0  0  0  0
   -4.8286   -8.4749   -6.4961 C   0  0  0  0  0  0  0  0  0  0  0  0
   -4.8437   -8.6432   -5.1284 O   0  0  0  0  0  0  0  0  0  0  0  0
   -5.6786   -7.5516   -7.1414 C   0  0  0  0  0  0  0  0  0  0  0  0
   -6.6934   -6.7178   -6.6917 N   0  0  0  0  0  0  0  0  0  0  0  0
   -6.3768   -6.4545   -8.9060 N   0  0  0  0  0  0  0  0  0  0  0  0
   -6.4987   -6.1184   -9.8568 H   0  0  0  0  0  0  0  0  0  0  0  0
   -5.4824   -7.4063   -8.4980 C   0  0  0  0  0  0  0  0  0  0  0  0
   -4.5649   -8.0628   -9.2719 N   0  0  0  0  0  0  0  0  0  0  0  0
   -2.7540   -9.4455   -9.1950 N   0  0  0  0  0  0  0  0  0  0  0  0
   -1.6777  -10.0879   -8.6824 C   0  0  0  0  0  0  0  0  0  0  0  0
   -1.1378  -11.1894   -9.3779 C   0  0  0  0  0  0  0  0  0  0  0  0
   -7.8773   -5.4007   -7.7812 H   0  0  0  0  0  0  0  0  0  0  0  0
   -2.9903   -9.6332   -5.0473 H   0  0  0  0  0  0  0  0  0  0  0  0
   -4.4229  -10.6291   -4.8549 H   0  0  0  0  0  0  0  0  0  0  0  0
   -4.7829   -9.3774   -2.6323 H   0  0  0  0  0  0  0  0  0  0  0  0
   -3.8774  -11.6547   -2.7221 H   0  0  0  0  0  0  0  0  0  0  0  0
   -2.2756  -11.0609   -3.0826 H   0  0  0  0  0  0  0  0  0  0  0  0
   -3.8272  -10.5678   -0.5168 H   0  0  0  0  0  0  0  0  0  0  0  0
   -2.4583  -11.6492   -0.6813 H   0  0  0  0  0  0  0  0  0  0  0  0
   -1.7800   -9.4698    0.3247 H   0  0  0  0  0  0  0  0  0  0  0  0
   -0.9904   -9.6965   -1.2222 H   0  0  0  0  0  0  0  0  0  0  0  0
   -3.4926   -8.0111   -0.6950 H   0  0  0  0  0  0  0  0  0  0  0  0
   -1.9020   -7.3964   -1.0650 H   0  0  0  0  0  0  0  0  0  0  0  0
   -1.9698   -8.3728   -3.3142 H   0  0  0  0  0  0  0  0  0  0  0  0
   -3.3877   -7.3827   -3.0769 H   0  0  0  0  0  0  0  0  0  0  0  0
    0.3930  -12.7117   -9.4104 H   0  0  0  0  0  0  0  0  0  0  0  0
    1.4788  -11.9386   -7.3090 H   0  0  0  0  0  0  0  0  0  0  0  0
    0.5718   -9.9625   -6.0976 H   0  0  0  0  0  0  0  0  0  0  0  0
   -1.4034   -8.7809   -6.9688 H   0  0  0  0  0  0  0  0  0  0  0  0
   -2.8211   -9.4600  -10.2050 H   0  0  0  0  0  0  0  0  0  0  0  0
   -1.5908  -11.5300  -10.2970 H   0  0  0  0  0  0  0  0  0  0  0  0
  1 14  1  0  0  0  0
  1 22  2  0  0  0  0
  1 23  1  0  0  0  0
  2 18  2  0  0  0  0
  2 19  1  0  0  0  0
  2 26  1  0  0  0  0
  3  4  1  0  0  0  0
  3 16  1  0  0  0  0
  3 27  1  0  0  0  0
  3 28  1  0  0  0  0
  4  5  1  0  0  0  0
  4  9  1  0  0  0  0
  4 29  1  0  0  0  0
  5  6  1  0  0  0  0
  5 30  1  0  0  0  0
  5 31  1  0  0  0  0
  6  7  1  0  0  0  0
  6 32  1  0  0  0  0
  6 33  1  0  0  0  0
  7  8  1  0  0  0  0
  7 34  1  0  0  0  0
  7 35  1  0  0  0  0
  8  9  1  0  0  0  0
  8 36  1  0  0  0  0
  8 37  1  0  0  0  0
  9 38  1  0  0  0  0
  9 39  1  0  0  0  0
 10 11  1  0  0  0  0
 10 25  2  0  0  0  0
 10 40  1  0  0  0  0
 11 12  2  0  0  0  0
 11 41  1  0  0  0  0
 12 13  1  0  0  0  0
 12 42  1  0  0  0  0
 13 24  2  0  0  0  0
 13 43  1  0  0  0  0
 14 15  2  0  0  0  0
 15 16  1  0  0  0  0
 15 17  1  0  0  0  0
 17 18  1  0  0  0  0
 17 21  2  0  0  0  0
 19 20  1  0  0  0  0
 19 21  1  0  0  0  0
 21 22  1  0  0  0  0
 23 24  1  0  0  0  0
 23 44  1  0  0  0  0
 24 25  1  0  0  0  0
 25 45  1  0  0  0  0
M  END
$$$$
1h1r
  MOE2020           3D

 45 48  0  0  0  0  0  0  0  0999 V2000
   -3.7962   -8.8862   -8.5498 C   0  0  0  0  0  0  0  0  0  0  0  0
   -7.0711   -6.1127   -7.7786 C   0  0  0  0  0  0  0  0  0  0  0  0
   -3.9889   -9.6591   -4.6074 C   0  0  0  0  0  0  0  0  0  0  0  0
   -3.8048   -9.5190   -3.0962 C   0  0  0  0  0  0  0  0  0  0  0  0
   -3.1950  -10.8231   -2.5463 C   0  0  0  0  0  0  0  0  0  0  0  0
   -2.8918  -10.7183   -1.0498 C   0  0  0  0  0  0  0  0  0  0  0  0
   -1.9608   -9.5383   -0.7487 C   0  0  0  0  0  0  0  0  0  0  0  0
   -2.5806   -8.2270   -1.2543 C   0  0  0  0  0  0  0  0  0  0  0  0
   -2.9050   -8.3078   -2.7554 C   0  0  0  0  0  0  0  0  0  0  0  0
   -0.0077  -11.8646   -8.8755 C   0  0  0  0  0  0  0  0  0  0  0  0
    0.6058  -11.4295   -7.6863 C   0  0  0  0  0  0  0  0  0  0  0  0
    0.0973  -10.3109   -7.0026 C   0  0  0  0  0  0  0  0  0  0  0  0
   -1.0335   -9.6414   -7.5049 C   0  0  0  0  0  0  0  0  0  0  0  0
   -3.9226   -9.1362   -7.2460 N   0  0  0  0  0  0  0  0  0  0  0  0
   -4.8286   -8.4749   -6.4961 C   0  0  0  0  0  0  0  0  0  0  0  0
   -4.8437   -8.6432   -5.1284 O   0  0  0  0  0  0  0  0  0  0  0  0
   -5.6786   -7.5516   -7.1414 C   0  0  0  0  0  0  0  0  0  0  0  0
   -6.6934   -6.7178   -6.6917 N   0  0  0  0  0  0  0  0  0  0  0  0
   -6.3768   -6.4545   -8.9060 N   0  0  0  0  0  0  0  0  0  0  0  0
   -6.4987   -6.1184   -9.8568 H   0  0  0  0  0  0  0  0  0  0  0  0
   -5.4824   -7.4063   -8.4980 C   0  0  0  0  0  0  0  0  0  0  0  0
   -4.5649   -8.0628   -9.2719 N   0  0  0  0  0  0  0  0  0  0  0  0
   -2.7540   -9.4455   -9.1950 N   0  0  0  0  0  0  0  0  0  0  0  0
   -1.6777  -10.0879   -8.6824 C   0  0  0  0  0  0  0  0  0  0  0  0
   -1.1378  -11.1894   -9.3779 C   0  0  0  0  0  0  0  0  0  0  0  0
   -7.8773   -5.4007   -7.7812 H   0  0  0  0  0  0  0  0  0  0  0  0
   -2.9903   -9.6332   -5.0473 H   0  0  0  0  0  0  0  0  0  0  0  0
   -4.4229  -10.6291   -4.8549 H   0  0  0  0  0  0  0  0  0  0  0  0
   -4.7829   -9.3774   -2.6323 H   0  0  0  0  0  0  0  0  0  0  0  0
   -3.8774  -11.6547   -2.7221 H   0  0  0  0  0  0  0  0  0  0  0  0
   -2.2756  -11.0609   -3.0826 H   0  0  0  0  0  0  0  0  0  0  0  0
   -3.8272  -10.5678   -0.5168 H   0  0  0  0  0  0  0  0  0  0  0  0
   -2.4583  -11.6492   -0.6813 H   0  0  0  0  0  0  0  0  0  0  0  0
   -1.7800   -9.4698    0.3247 H   0  0  0  0  0  0  0  0  0  0  0  0
   -0.9904   -9.6965   -1.2222 H   0  0  0  0  0  0  0  0  0  0  0  0
   -3.4926   -8.0111   -0.6950 H   0  0  0  0  0  0  0  0  0  0  0  0
   -1.9020   -7.3964   -1.0650 H   0  0  0  0  0  0  0  0  0  0  0  0
   -1.9698   -8.3728   -3.3142 H   0  0  0  0  0  0  0  0  0  0  0  0
   -3.3877   -7.3827   -3.0769 H   0  0  0  0  0  0  0  0  0  0  0  0
    0.3930  -12.7117   -9.4104 H   0  0  0  0  0  0  0  0  0  0  0  0
    1.4788  -11.9386   -7.3090 H   0  0  0  0  0  0  0  0  0  0  0  0
   -1.4034   -8.7809   -6.9688 H   0  0  0  0  0  0  0  0  0  0  0  0
   -2.8211   -9.4600  -10.2050 H   0  0  0  0  0  0  0  0  0  0  0  0
   -1.5908  -11.5300  -10.2970 H   0  0  0  0  0  0  0  0  0  0  0  0
    0.8584   -9.7532   -5.5531 Cl  0  0  0  0  0  0  0  0  0  0  0  0
  1 14  1  0  0  0  0
  1 22  2  0  0  0  0
  1 23  1  0  0  0  0
  2 18  2  0  0  0  0
  2 19  1  0  0  0  0
  2 26  1  0  0  0  0
  3  4  1  0  0  0  0
  3 16  1  0  0  0  0
  3 27  1  0  0  0  0
  3 28  1  0  0  0  0
  4  5  1  0  0  0  0
  4  9  1  0  0  0  0
  4 29  1  0  0  0  0
  5  6  1  0  0  0  0
  5 30  1  0  0  0  0
  5 31  1  0  0  0  0
  6  7  1  0  0  0  0
  6 32  1  0  0  0  0
  6 33  1  0  0  0  0
  7  8  1  0  0  0  0
  7 34  1  0  0  0  0
  7 35  1  0  0  0  0
  8  9  1  0  0  0  0
  8 36  1  0  0  0  0
  8 37  1  0  0  0  0
  9 38  1  0  0  0  0
  9 39  1  0  0  0  0
 10 11  1  0  0  0  0
 10 25  2  0  0  0  0
 10 40  1  0  0  0  0
 11 12  2  0  0  0  0
 11 41  1  0  0  0  0
 12 13  1  0  0  0  0
 12 45  1  0  0  0  0
 13 24  2  0  0  0  0
 13 42  1  0  0  0  0
 14 15  2  0  0  0  0
 15 16  1  0  0  0  0
 15 17  1  0  0  0  0
 17 18  1  0  0  0  0
 17 21  2  0  0  0  0
 19 20  1  0  0  0  0
 19 21  1  0  0  0  0
 21 22  1  0  0  0  0
 23 24  1  0  0  0  0
 23 43  1  0  0  0  0
 24 25  1  0  0  0  0
 25 44  1  0  0  0  0
M  END
$$$$
1h1s
  MOE2020           3D

 50 53  0  0  0  0  0  0  0  0999 V2000
   -3.7962   -8.8862   -8.5498 C   0  0  0  0  0  0  0  0  0  0  0  0
   -7.0711   -6.1127   -7.7786 C   0  0  0  0  0  0  0  0  0  0  0  0
   -3.9889   -9.6591   -4.6074 C   0  0  0  0  0  0  0  0  0  0  0  0
   -3.8048   -9.5190   -3.0962 C   0  0  0  0  0  0  0  0  0  0  0  0
   -3.1950  -10.8231   -2.5463 C   0  0  0  0  0  0  0  0  0  0  0  0
   -2.8918  -10.7183   -1.0498 C   0  0  0  0  0  0  0  0  0  0  0  0
   -1.9608   -9.5383   -0.7487 C   0  0  0  0  0  0  0  0  0  0  0  0
   -2.5806   -8.2270   -1.2543 C   0  0  0  0  0  0  0  0  0  0  0  0
   -2.9050   -8.3078   -2.7554 C   0  0  0  0  0  0  0  0  0  0  0  0
   -0.0077  -11.8646   -8.8755 C   0  0  0  0  0  0  0  0  0  0  0  0
    0.6058  -11.4295   -7.6863 C   0  0  0  0  0  0  0  0  0  0  0  0
    0.0973  -10.3109   -7.0026 C   0  0  0  0  0  0  0  0  0  0  0  0
   -1.0335   -9.6414   -7.5049 C   0  0  0  0  0  0  0  0  0  0  0  0
   -3.9226   -9.1362   -7.2460 N   0  0  0  0  0  0  0  0  0  0  0  0
   -4.8286   -8.4749   -6.4961 C   0  0  0  0  0  0  0  0  0  0  0  0
   -4.8437   -8.6432   -5.1284 O   0  0  0  0  0  0  0  0  0  0  0  0
   -5.6786   -7.5516   -7.1414 C   0  0  0  0  0  0  0  0  0  0  0  0
   -6.6934   -6.7178   -6.6917 N   0  0  0  0  0  0  0  0  0  0  0  0
   -6.3768   -6.4545   -8.9060 N   0  0  0  0  0  0  0  0  0  0  0  0
   -6.4987   -6.1184   -9.8568 H   0  0  0  0  0  0  0  0  0  0  0  0
   -5.4824   -7.4063   -8.4980 C   0  0  0  0  0  0  0  0  0  0  0  0
   -4.5649   -8.0628   -9.2719 N   0  0  0  0  0  0  0  0  0  0  0  0
   -2.7540   -9.4455   -9.1950 N   0  0  0  0  0  0  0  0  0  0  0  0
   -1.6777  -10.0879   -8.6824 C   0  0  0  0  0  0  0  0  0  0  0  0
   -1.1378  -11.1894   -9.3779 C   0  0  0  0  0  0  0  0  0  0  0  0
   -7.8773   -5.4007   -7.7812 H   0  0  0  0  0  0  0  0  0  0  0  0
   -2.9903   -9.6332   -5.0473 H   0  0  0  0  0  0  0  0  0  0  0  0
   -4.4229  -10.6291   -4.8549 H   0  0  0  0  0  0  0  0  0  0  0  0
   -4.7829   -9.3774   -2.6323 H   0  0  0  0  0  0  0  0  0  0  0  0
   -3.8774  -11.6547   -2.7221 H   0  0  0  0  0  0  0  0  0  0  0  0
   -2.2756  -11.0609   -3.0826 H   0  0  0  0  0  0  0  0  0  0  0  0
   -3.8272  -10.5678   -0.5168 H   0  0  0  0  0  0  0  0  0  0  0  0
   -2.4583  -11.6492   -0.6813 H   0  0  0  0  0  0  0  0  0  0  0  0
   -1.7800   -9.4698    0.3247 H   0  0  0  0  0  0  0  0  0  0  0  0
   -0.9904   -9.6965   -1.2222 H   0  0  0  0  0  0  0  0  0  0  0  0
   -3.4926   -8.0111   -0.6950 H   0  0  0  0  0  0  0  0  0  0  0  0
   -1.9020   -7.3964   -1.0650 H   0  0  0  0  0  0  0  0  0  0  0  0
   -1.9698   -8.3728   -3.3142 H   0  0  0  0  0  0  0  0  0  0  0  0
   -3.3877   -7.3827   -3.0769 H   0  0  0  0  0  0  0  0  0  0  0  0
    0.3930  -12.7117   -9.4104 H   0  0  0  0  0  0  0  0  0  0  0  0
    0.5718   -9.9625   -6.0976 H   0  0  0  0  0  0  0  0  0  0  0  0
   -1.4034   -8.7809   -6.9688 H   0  0  0  0  0  0  0  0  0  0  0  0
   -2.8211   -9.4600  -10.2050 H   0  0  0  0  0  0  0  0  0  0  0  0
   -1.5908  -11.5300  -10.2970 H   0  0  0  0  0  0  0  0  0  0  0  0
    1.8202  -12.1370   -7.1618 S   0  0  0  0  0  0  0  0  0  0  0  0
    1.9392  -13.4074   -7.8669 O   0  0  0  0  0  0  0  0  0  0  0  0
    2.9184  -11.1792   -7.1296 O   0  0  0  0  0  0  0  0  0  0  0  0
    1.5305  -12.5544   -5.5145 N   0  0  0  0  0  0  0  0  0  0  0  0
    2.1755  -12.2293   -4.8095 H   0  0  0  0  0  0  0  0  0  0  0  0
    0.7854  -13.2012   -5.3006 H   0  0  0  0  0  0  0  0  0  0  0  0
  1 14  1  0  0  0  0
  1 22  2  0  0  0  0
  1 23  1  0  0  0  0
  2 18  2  0  0  0  0
  2 19  1  0  0  0  0
  2 26  1  0  0  0  0
  3  4  1  0  0  0  0
  3 16  1  0  0  0  0
  3 27  1  0  0  0  0
  3 28  1  0  0  0  0
  4  5  1  0  0  0  0
  4  9  1  0  0  0  0
  4 29  1  0  0  0  0
  5  6  1  0  0  0  0
  5 30  1  0  0  0  0
  5 31  1  0  0  0  0
  6  7  1  0  0  0  0
  6 32  1  0  0  0  0
  6 33  1  0  0  0  0
  7  8  1  0  0  0  0
  7 34  1  0  0  0  0
  7 35  1  0  0  0  0
  8  9  1  0  0  0  0
  8 36  1  0  0  0  0
  8 37  1  0  0  0  0
  9 38  1  0  0  0  0
  9 39  1  0  0  0  0
 10 11  1  0  0  0  0
 10 25  2  0  0  0  0
 10 40  1  0  0  0  0
 11 12  2  0  0  0  0
 11 45  1  0  0  0  0
 12 13  1  0  0  0  0
 12 41  1  0  0  0  0
 13 24  2  0  0  0  0
 13 42  1  0  0  0  0
 14 15  2  0  0  0  0
 15 16  1  0  0  0  0
 15 17  1  0  0  0  0
 17 18  1  0  0  0  0
 17 21  2  0  0  0  0
 19 20  1  0  0  0  0
 19 21  1  0  0  0  0
 21 22  1  0  0  0  0
 23 24  1  0  0  0  0
 23 43  1  0  0  0  0
 24 25  1  0  0  0  0
 25 44  1  0  0  0  0
 45 46  2  0  0  0  0
 45 47  2  0  0  0  0
 45 48  1  0  0  0  0
 48 49  1  0  0  0  0
 48 50  1  0  0  0  0
M  END
$$$$
1oi9
  MOE2020           3D

 46 49  0  0  0  0  0  0  0  0999 V2000
   -3.7962   -8.8862   -8.5498 C   0  0  0  0  0  0  0  0  0  0  0  0
   -7.0711   -6.1127   -7.7786 C   0  0  0  0  0  0  0  0  0  0  0  0
   -3.9889   -9.6591   -4.6074 C   0  0  0  0  0  0  0  0  0  0  0  0
   -3.8048   -9.5190   -3.0962 C   0  0  0  0  0  0  0  0  0  0  0  0
   -3.1950  -10.8231   -2.5463 C   0  0  0  0  0  0  0  0  0  0  0  0
   -2.8918  -10.7183   -1.0498 C   0  0  0  0  0  0  0  0  0  0  0  0
   -1.9608   -9.5383   -0.7487 C   0  0  0  0  0  0  0  0  0  0  0  0
   -2.5806   -8.2270   -1.2543 C   0  0  0  0  0  0  0  0  0  0  0  0
   -2.9050   -8.3078   -2.7554 C   0  0  0  0  0  0  0  0  0  0  0  0
   -0.0077  -11.8646   -8.8755 C   0  0  0  0  0  0  0  0  0  0  0  0
    0.6058  -11.4295   -7.6863 C   0  0  0  0  0  0  0  0  0  0  0  0
    0.0973  -10.3109   -7.0026 C   0  0  0  0  0  0  0  0  0  0  0  0
   -1.0335   -9.6414   -7.5049 C   0  0  0  0  0  0  0  0  0  0  0  0
   -3.9226   -9.1362   -7.2460 N   0  0  0  0  0  0  0  0  0  0  0  0
   -4.8286   -8.4749   -6.4961 C   0  0  0  0  0  0  0  0  0  0  0  0
   -4.8437   -8.6432   -5.1284 O   0  0  0  0  0  0  0  0  0  0  0  0
   -5.6786   -7.5516   -7.1414 C   0  0  0  0  0  0  0  0  0  0  0  0
   -6.6934   -6.7178   -6.6917 N   0  0  0  0  0  0  0  0  0  0  0  0
   -6.3768   -6.4545   -8.9060 N   0  0  0  0  0  0  0  0  0  0  0  0
   -6.4987   -6.1184   -9.8568 H   0  0  0  0  0  0  0  0  0  0  0  0
   -5.4824   -7.4063   -8.4980 C   0  0  0  0  0  0  0  0  0  0  0  0
   -4.5649   -8.0628   -9.2719 N   0  0  0  0  0  0  0  0  0  0  0  0
   -2.7540   -9.4455   -9.1950 N   0  0  0  0  0  0  0  0  0  0  0  0
   -1.6777  -10.0879   -8.6824 C   0  0  0  0  0  0  0  0  0  0  0  0
   -1.1378  -11.1894   -9.3779 C   0  0  0  0  0  0  0  0  0  0  0  0
   -7.8773   -5.4007   -7.7812 H   0  0  0  0  0  0  0  0  0  0  0  0
   -2.9903   -9.6332   -5.0473 H   0  0  0  0  0  0  0  0  0  0  0  0
   -4.4229  -10.6291   -4.8549 H   0  0  0  0  0  0  0  0  0  0  0  0
   -4.7829   -9.3774   -2.6323 H   0  0  0  0  0  0  0  0  0  0  0  0
   -3.8774  -11.6547   -2.7221 H   0  0  0  0  0  0  0  0  0  0  0  0
   -2.2756  -11.0609   -3.0826 H   0  0  0  0  0  0  0  0  0  0  0  0
   -3.8272  -10.5678   -0.5168 H   0  0  0  0  0  0  0  0  0  0  0  0
   -2.4583  -11.6492   -0.6813 H   0  0  0  0  0  0  0  0  0  0  0  0
   -1.7800   -9.4698    0.3247 H   0  0  0  0  0  0  0  0  0  0  0  0
   -0.9904   -9.6965   -1.2222 H   0  0  0  0  0  0  0  0  0  0  0  0
   -3.4926   -8.0111   -0.6950 H   0  0  0  0  0  0  0  0  0  0  0  0
   -1.9020   -7.3964   -1.0650 H   0  0  0  0  0  0  0  0  0  0  0  0
   -1.9698   -8.3728   -3.3142 H   0  0  0  0  0  0  0  0  0  0  0  0
   -3.3877   -7.3827   -3.0769 H   0  0  0  0  0  0  0  0  0  0  0  0
    0.3930  -12.7117   -9.4104 H   0  0  0  0  0  0  0  0  0  0  0  0
    0.5718   -9.9625   -6.0976 H   0  0  0  0  0  0  0  0  0  0  0  0
   -1.4034   -8.7809   -6.9688 H   0  0  0  0  0  0  0  0  0  0  0  0
   -2.8211   -9.4600  -10.2050 H   0  0  0  0  0  0  0  0  0  0  0  0
   -1.5908  -11.5300  -10.2970 H   0  0  0  0  0  0  0  0  0  0  0  0
    1.7105  -12.0730   -7.2092 O   0  0  0  0  0  0  0  0  0  0  0  0
    2.0012  -11.6646   -6.4084 H   0  0  0  0  0  0  0  0  0  0  0  0
  1 14  1  0  0  0  0
  1 22  2  0  0  0  0
  1 23  1  0  0  0  0
  2 18  2  0  0  0  0
  2 19  1  0  0  0  0
  2 26  1  0  0  0  0
  3  4  1  0  0  0  0
  3 16  1  0  0  0  0
  3 27  1  0  0  0  0
  3 28  1  0  0  0  0
  4  5  1  0  0  0  0
  4  9  1  0  0  0  0
  4 29  1  0  0  0  0
  5  6  1  0  0  0  0
  5 30  1  0  0  0  0
  5 31  1  0  0  0  0
  6  7  1  0  0  0  0
  6 32  1  0  0  0  0
  6 33  1  0  0  0  0
  7  8  1  0  0  0  0
  7 34  1  0  0  0  0
  7 35  1  0  0  0  0
  8  9  1  0  0  0  0
  8 36  1  0  0  0  0
  8 37  1  0  0  0  0
  9 38  1  0  0  0  0
  9 39  1  0  0  0  0
 10 11  1  0  0  0  0
 10 25  2  0  0  0  0
 10 40  1  0  0  0  0
 11 12  2  0  0  0  0
 11 45  1  0  0  0  0
 12 13  1  0  0  0  0
 12 41  1  0  0  0  0
 13 24  2  0  0  0  0
 13 42  1  0  0  0  0
 14 15  2  0  0  0  0
 15 16  1  0  0  0  0
 15 17  1  0  0  0  0
 17 18  1  0  0  0  0
 17 21  2  0  0  0  0
 19 20  1  0  0  0  0
 19 21  1  0  0  0  0
 21 22  1  0  0  0  0
 23 24  1  0  0  0  0
 23 43  1  0  0  0  0
 24 25  1  0  0  0  0
 25 44  1  0  0  0  0
 45 46  1  0  0  0  0
M  END
$$$$
1oiu
  MOE2020           3D

 50 53  0  0  0  0  0  0  0  0999 V2000
   -3.7962   -8.8862   -8.5498 C   0  0  0  0  0  0  0  0  0  0  0  0
   -7.0711   -6.1127   -7.7786 C   0  0  0  0  0  0  0  0  0  0  0  0
   -3.9889   -9.6591   -4.6074 C   0  0  0  0  0  0  0  0  0  0  0  0
   -3.8048   -9.5190   -3.0962 C   0  0  0  0  0  0  0  0  0  0  0  0
   -3.1950  -10.8231   -2.5463 C   0  0  0  0  0  0  0  0  0  0  0  0
   -2.8918  -10.7183   -1.0498 C   0  0  0  0  0  0  0  0  0  0  0  0
   -1.9608   -9.5383   -0.7487 C   0  0  0  0  0  0  0  0  0  0  0  0
   -2.5806   -8.2270   -1.2543 C   0  0  0  0  0  0  0  0  0  0  0  0
   -2.9050   -8.3078   -2.7554 C   0  0  0  0  0  0  0  0  0  0  0  0
   -0.0077  -11.8646   -8.8755 C   0  0  0  0  0  0  0  0  0  0  0  0
    0.6058  -11.4295   -7.6863 C   0  0  0  0  0  0  0  0  0  0  0  0
    0.0973  -10.3109   -7.0026 C   0  0  0  0  0  0  0  0  0  0  0  0
   -1.0335   -9.6414   -7.5049 C   0  0  0  0  0  0  0  0  0  0  0  0
   -3.9226   -9.1362   -7.2460 N   0  0  0  0  0  0  0  0  0  0  0  0
   -4.8286   -8.4749   -6.4961 C   0  0  0  0  0  0  0  0  0  0  0  0
   -4.8437   -8.6432   -5.1284 O   0  0  0  0  0  0  0  0  0  0  0  0
   -5.6786   -7.5516   -7.1414 C   0  0  0  0  0  0  0  0  0  0  0  0
   -6.6934   -6.7178   -6.6917 N   0  0  0  0  0  0  0  0  0  0  0  0
   -6.3768   -6.4545   -8.9060 N   0  0  0  0  0  0  0  0  0  0  0  0
   -6.4987   -6.1184   -9.8568 H   0  0  0  0  0  0  0  0  0  0  0  0
   -5.4824   -7.4063   -8.4980 C   0  0  0  0  0  0  0  0  0  0  0  0
   -4.5649   -8.0628   -9.2719 N   0  0  0  0  0  0  0  0  0  0  0  0
   -2.7540   -9.4455   -9.1950 N   0  0  0  0  0  0  0  0  0  0  0  0
   -1.6777  -10.0879   -8.6824 C   0  0  0  0  0  0  0  0  0  0  0  0
   -1.1378  -11.1894   -9.3779 C   0  0  0  0  0  0  0  0  0  0  0  0
   -7.8773   -5.4007   -7.7812 H   0  0  0  0  0  0  0  0  0  0  0  0
   -2.9903   -9.6332   -5.0473 H   0  0  0  0  0  0  0  0  0  0  0  0
   -4.4229  -10.6291   -4.8549 H   0  0  0  0  0  0  0  0  0  0  0  0
   -4.7829   -9.3774   -2.6323 H   0  0  0  0  0  0  0  0  0  0  0  0
   -3.8774  -11.6547   -2.7221 H   0  0  0  0  0  0  0  0  0  0  0  0
   -2.2756  -11.0609   -3.0826 H   0  0  0  0  0  0  0  0  0  0  0  0
   -3.8272  -10.5678   -0.5168 H   0  0  0  0  0  0  0  0  0  0  0  0
   -2.4583  -11.6492   -0.6813 H   0  0  0  0  0  0  0  0  0  0  0  0
   -1.7800   -9.4698    0.3247 H   0  0  0  0  0  0  0  0  0  0  0  0
   -0.9904   -9.6965   -1.2222 H   0  0  0  0  0  0  0  0  0  0  0  0
   -3.4926   -8.0111   -0.6950 H   0  0  0  0  0  0  0  0  0  0  0  0
   -1.9020   -7.3964   -1.0650 H   0  0  0  0  0  0  0  0  0  0  0  0
   -1.9698   -8.3728   -3.3142 H   0  0  0  0  0  0  0  0  0  0  0  0
   -3.3877   -7.3827   -3.0769 H   0  0  0  0  0  0  0  0  0  0  0  0
    1.4788  -11.9386   -7.3090 H   0  0  0  0  0  0  0  0  0  0  0  0
    0.5718   -9.9625   -6.0976 H   0  0  0  0  0  0  0  0  0  0  0  0
   -1.4034   -8.7809   -6.9688 H   0  0  0  0  0  0  0  0  0  0  0  0
   -2.8211   -9.4600  -10.2050 H   0  0  0  0  0  0  0  0  0  0  0  0
   -1.5908  -11.5300  -10.2970 H   0  0  0  0  0  0  0  0  0  0  0  0
    0.5498  -13.0417   -9.6194 S   0  0  0  0  0  0  0  0  0  0  0  0
    0.4228  -14.2149   -8.7618 O   0  0  0  0  0  0  0  0  0  0  0  0
   -0.0016  -13.0225  -10.9696 O   0  0  0  0  0  0  0  0  0  0  0  0
    2.2451  -12.8013   -9.8149 N   0  0  0  0  0  0  0  0  0  0  0  0
    2.5655  -12.0176  -10.3659 H   0  0  0  0  0  0  0  0  0  0  0  0
    2.8797  -13.5058   -9.4663 H   0  0  0  0  0  0  0  0  0  0  0  0
  1 14  1  0  0  0  0
  1 22  2  0  0  0  0
  1 23  1  0  0  0  0
  2 18  2  0  0  0  0
  2 19  1  0  0  0  0
  2 26  1  0  0  0  0
  3  4  1  0  0  0  0
  3 16  1  0  0  0  0
  3 27  1  0  0  0  0
  3 28  1  0  0  0  0
  4  5  1  0  0  0  0
  4  9  1  0  0  0  0
  4 29  1  0  0  0  0
  5  6  1  0  0  0  0
  5 30  1  0  0  0  0
  5 31  1  0  0  0  0
  6  7  1  0  0  0  0
  6 32  1  0  0  0  0
  6 33  1  0  0  0  0
  7  8  1  0  0  0  0
  7 34  1  0  0  0  0
  7 35  1  0  0  0  0
  8  9  1  0  0  0  0
  8 36  1  0  0  0  0
  8 37  1  0  0  0  0
  9 38  1  0  0  0  0
  9 39  1  0  0  0  0
 10 11  1  0  0  0  0
 10 25  2  0  0  0  0
 10 45  1  0  0  0  0
 11 12  2  0  0  0  0
 11 40  1  0  0  0  0
 12 13  1  0  0  0  0
 12 41  1  0  0  0  0
 13 24  2  0  0  0  0
 13 42  1  0  0  0  0
 14 15  2  0  0  0  0
 15 16  1  0  0  0  0
 15 17  1  0  0  0  0
 17 18  1  0  0  0  0
 17 21  2  0  0  0  0
 19 20  1  0  0  0  0
 19 21  1  0  0  0  0
 21 22  1  0  0  0  0
 23 24  1  0  0  0  0
 23 43  1  0  0  0  0
 24 25  1  0  0  0  0
 25 44  1  0  0  0  0
 45 46  2  0  0  0  0
 45 47  2  0  0  0  0
 45 48  1  0  0  0  0
 48 49  1  0  0  0  0
 48 50  1  0  0  0  0
M  END
$$$$
1oiy
  MOE2020           3D

 49 52  0  0  0  0  0  0  0  0999 V2000
   -3.7962   -8.8862   -8.5498 C   0  0  0  0  0  0  0  0  0  0  0  0
   -7.0711   -6.1127   -7.7786 C   0  0  0  0  0  0  0  0  0  0  0  0
   -3.9889   -9.6591   -4.6074 C   0  0  0  0  0  0  0  0  0  0  0  0
   -3.8048   -9.5190   -3.0962 C   0  0  0  0  0  0  0  0  0  0  0  0
   -3.1950  -10.8231   -2.5463 C   0  0  0  0  0  0  0  0  0  0  0  0
   -2.8918  -10.7183   -1.0498 C   0  0  0  0  0  0  0  0  0  0  0  0
   -1.9608   -9.5383   -0.7487 C   0  0  0  0  0  0  0  0  0  0  0  0
   -2.5806   -8.2270   -1.2543 C   0  0  0  0  0  0  0  0  0  0  0  0
   -2.9050   -8.3078   -2.7554 C   0  0  0  0  0  0  0  0  0  0  0  0
   -0.0077  -11.8646   -8.8755 C   0  0  0  0  0  0  0  0  0  0  0  0
    0.6058  -11.4295   -7.6863 C   0  0  0  0  0  0  0  0  0  0  0  0
    0.0973  -10.3109   -7.0026 C   0  0  0  0  0  0  0  0  0  0  0  0
   -1.0335   -9.6414   -7.5049 C   0  0  0  0  0  0  0  0  0  0  0  0
   -3.9226   -9.1362   -7.2460 N   0  0  0  0  0  0  0  0  0  0  0  0
   -4.8286   -8.4749   -6.4961 C   0  0  0  0  0  0  0  0  0  0  0  0
   -4.8437   -8.6432   -5.1284 O   0  0  0  0  0  0  0  0  0  0  0  0
   -5.6786   -7.5516   -7.1414 C   0  0  0  0  0  0  0  0  0  0  0  0
   -6.6934   -6.7178   -6.6917 N   0  0  0  0  0  0  0  0  0  0  0  0
   -6.3768   -6.4545   -8.9060 N   0  0  0  0  0  0  0  0  0  0  0  0
   -6.4987   -6.1184   -9.8568 H   0  0  0  0  0  0  0  0  0  0  0  0
   -5.4824   -7.4063   -8.4980 C   0  0  0  0  0  0  0  0  0  0  0  0
   -4.5649   -8.0628   -9.2719 N   0  0  0  0  0  0  0  0  0  0  0  0
   -2.7540   -9.4455   -9.1950 N   0  0  0  0  0  0  0  0  0  0  0  0
   -1.6777  -10.0879   -8.6824 C   0  0  0  0  0  0  0  0  0  0  0  0
   -1.1378  -11.1894   -9.3779 C   0  0  0  0  0  0  0  0  0  0  0  0
   -7.8773   -5.4007   -7.7812 H   0  0  0  0  0  0  0  0  0  0  0  0
   -2.9903   -9.6332   -5.0473 H   0  0  0  0  0  0  0  0  0  0  0  0
   -4.4229  -10.6291   -4.8549 H   0  0  0  0  0  0  0  0  0  0  0  0
   -4.7829   -9.3774   -2.6323 H   0  0  0  0  0  0  0  0  0  0  0  0
   -3.8774  -11.6547   -2.7221 H   0  0  0  0  0  0  0  0  0  0  0  0
   -2.2756  -11.0609   -3.0826 H   0  0  0  0  0  0  0  0  0  0  0  0
   -3.8272  -10.5678   -0.5168 H   0  0  0  0  0  0  0  0  0  0  0  0
   -2.4583  -11.6492   -0.6813 H   0  0  0  0  0  0  0  0  0  0  0  0
   -1.7800   -9.4698    0.3247 H   0  0  0  0  0  0  0  0  0  0  0  0
   -0.9904   -9.6965   -1.2222 H   0  0  0  0  0  0  0  0  0  0  0  0
   -3.4926   -8.0111   -0.6950 H   0  0  0  0  0  0  0  0  0  0  0  0
   -1.9020   -7.3964   -1.0650 H   0  0  0  0  0  0  0  0  0  0  0  0
   -1.9698   -8.3728   -3.3142 H   0  0  0  0  0  0  0  0  0  0  0  0
   -3.3877   -7.3827   -3.0769 H   0  0  0  0  0  0  0  0  0  0  0  0
    0.3930  -12.7117   -9.4104 H   0  0  0  0  0  0  0  0  0  0  0  0
    0.5718   -9.9625   -6.0976 H   0  0  0  0  0  0  0  0  0  0  0  0
   -1.4034   -8.7809   -6.9688 H   0  0  0  0  0  0  0  0  0  0  0  0
   -2.8211   -9.4600  -10.2050 H   0  0  0  0  0  0  0  0  0  0  0  0
   -1.5908  -11.5300  -10.2970 H   0  0  0  0  0  0  0  0  0  0  0  0
    2.2971  -13.0092   -7.8914 O   0  0  0  0  0  0  0  0  0  0  0  0
    1.7901  -12.1198   -7.1747 C   0  0  0  0  0  0  0  0  0  0  0  0
    2.3089  -11.7076   -5.8293 N   0  0  0  0  0  0  0  0  0  0  0  0
    1.6761  -10.9057   -5.4206 H   0  0  0  0  0  0  0  0  0  0  0  0
    3.1246  -12.1598   -5.4416 H   0  0  0  0  0  0  0  0  0  0  0  0
  1 14  1  0  0  0  0
  1 22  2  0  0  0  0
  1 23  1  0  0  0  0
  2 18  2  0  0  0  0
  2 19  1  0  0  0  0
  2 26  1  0  0  0  0
  3  4  1  0  0  0  0
  3 16  1  0  0  0  0
  3 27  1  0  0  0  0
  3 28  1  0  0  0  0
  4  5  1  0  0  0  0
  4  9  1  0  0  0  0
  4 29  1  0  0  0  0
  5  6  1  0  0  0  0
  5 30  1  0  0  0  0
  5 31  1  0  0  0  0
  6  7  1  0  0  0  0
  6 32  1  0  0  0  0
  6 33  1  0  0  0  0
  7  8  1  0  0  0  0
  7 34  1  0  0  0  0
  7 35  1  0  0  0  0
  8  9  1  0  0  0  0
  8 36  1  0  0  0  0
  8 37  1  0  0  0  0
  9 38  1  0  0  0  0
  9 39  1  0  0  0  0
 10 11  1  0  0  0  0
 10 25  2  0  0  0  0
 10 40  1  0  0  0  0
 11 12  2  0  0  0  0
 11 46  1  0  0  0  0
 12 13  1  0  0  0  0
 12 41  1  0  0  0  0
 13 24  2  0  0  0  0
 13 42  1  0  0  0  0
 14 15  2  0  0  0  0
 15 16  1  0  0  0  0
 15 17  1  0  0  0  0
 17 18  1  0  0  0  0
 17 21  2  0  0  0  0
 19 20  1  0  0  0  0
 19 21  1  0  0  0  0
 21 22  1  0  0  0  0
 23 24  1  0  0  0  0
 23 43  1  0  0  0  0
 24 25  1  0  0  0  0
 25 44  1  0  0  0  0
 45 46  2  0  0  0  0
 46 47  1  0  0  0  0
 47 48  1  0  0  0  0
 47 49  1  0  0  0  0
M  END
$$$$
17
  MOE2020           3D

 45 48  0  0  0  0  0  0  0  0999 V2000
   -3.7962   -8.8862   -8.5498 C   0  0  0  0  0  0  0  0  0  0  0  0
   -7.0711   -6.1127   -7.7786 C   0  0  0  0  0  0  0  0  0  0  0  0
   -3.9889   -9.6591   -4.6074 C   0  0  0  0  0  0  0  0  0  0  0  0
   -3.8048   -9.5190   -3.0962 C   0  0  0  0  0  0  0  0  0  0  0  0
   -3.1950  -10.8231   -2.5463 C   0  0  0  0  0  0  0  0  0  0  0  0
   -2.8918  -10.7183   -1.0498 C   0  0  0  0  0  0  0  0  0  0  0  0
   -1.9608   -9.5383   -0.7487 C   0  0  0  0  0  0  0  0  0  0  0  0
   -2.5806   -8.2270   -1.2543 C   0  0  0  0  0  0  0  0  0  0  0  0
   -2.9050   -8.3078   -2.7554 C   0  0  0  0  0  0  0  0  0  0  0  0
   -0.0077  -11.8646   -8.8755 C   0  0  0  0  0  0  0  0  0  0  0  0
    0.6058  -11.4295   -7.6863 C   0  0  0  0  0  0  0  0  0  0  0  0
    0.0973  -10.3109   -7.0026 C   0  0  0  0  0  0  0  0  0  0  0  0
   -1.0335   -9.6414   -7.5049 C   0  0  0  0  0  0  0  0  0  0  0  0
   -3.9226   -9.1362   -7.2460 N   0  0  0  0  0  0  0  0  0  0  0  0
   -4.8286   -8.4749   -6.4961 C   0  0  0  0  0  0  0  0  0  0  0  0
   -4.8437   -8.6432   -5.1284 O   0  0  0  0  0  0  0  0  0  0  0  0
   -5.6786   -7.5516   -7.1414 C   0  0  0  0  0  0  0  0  0  0  0  0
   -6.6934   -6.7178   -6.6917 N   0  0  0  0  0  0  0  0  0  0  0  0
   -6.3768   -6.4545   -8.9060 N   0  0  0  0  0  0  0  0  0  0  0  0
   -6.4987   -6.1184   -9.8568 H   0  0  0  0  0  0  0  0  0  0  0  0
   -5.4824   -7.4063   -8.4980 C   0  0  0  0  0  0  0  0  0  0  0  0
   -4.5649   -8.0628   -9.2719 N   0  0  0  0  0  0  0  0  0  0  0  0
   -2.7540   -9.4455   -9.1950 N   0  0  0  0  0  0  0  0  0  0  0  0
   -1.6777  -10.0879   -8.6824 C   0  0  0  0  0  0  0  0  0  0  0  0
   -1.1378  -11.1894   -9.3779 C   0  0  0  0  0  0  0  0  0  0  0  0
   -7.8773   -5.4007   -7.7812 H   0  0  0  0  0  0  0  0  0  0  0  0
   -2.9903   -9.6332   -5.0473 H   0  0  0  0  0  0  0  0  0  0  0  0
   -4.4229  -10.6291   -4.8549 H   0  0  0  0  0  0  0  0  0  0  0  0
   -4.7829   -9.3774   -2.6323 H   0  0  0  0  0  0  0  0  0  0  0  0
   -3.8774  -11.6547   -2.7221 H   0  0  0  0  0  0  0  0  0  0  0  0
   -2.2756  -11.0609   -3.0826 H   0  0  0  0  0  0  0  0  0  0  0  0
   -3.8272  -10.5678   -0.5168 H   0  0  0  0  0  0  0  0  0  0  0  0
   -2.4583  -11.6492   -0.6813 H   0  0  0  0  0  0  0  0  0  0  0  0
   -1.7800   -9.4698    0.3247 H   0  0  0  0  0  0  0  0  0  0  0  0
   -0.9904   -9.6965   -1.2222 H   0  0  0  0  0  0  0  0  0  0  0  0
   -3.4926   -8.0111   -0.6950 H   0  0  0  0  0  0  0  0  0  0  0  0
   -1.9020   -7.3964   -1.0650 H   0  0  0  0  0  0  0  0  0  0  0  0
   -1.9698   -8.3728   -3.3142 H   0  0  0  0  0  0  0  0  0  0  0  0
   -3.3877   -7.3827   -3.0769 H   0  0  0  0  0  0  0  0  0  0  0  0
    0.3930  -12.7117   -9.4104 H   0  0  0  0  0  0  0  0  0  0  0  0
    1.4788  -11.9386   -7.3090 H   0  0  0  0  0  0  0  0  0  0  0  0
   -1.4034   -8.7809   -6.9688 H   0  0  0  0  0  0  0  0  0  0  0  0
   -2.8211   -9.4600  -10.2050 H   0  0  0  0  0  0  0  0  0  0  0  0
   -1.5908  -11.5300  -10.2970 H   0  0  0  0  0  0  0  0  0  0  0  0
    0.9282   -9.7015   -5.4188 Br  0  0  0  0  0  0  0  0  0  0  0  0
  1 14  1  0  0  0  0
  1 22  2  0  0  0  0
  1 23  1  0  0  0  0
  2 18  2  0  0  0  0
  2 19  1  0  0  0  0
  2 26  1  0  0  0  0
  3  4  1  0  0  0  0
  3 16  1  0  0  0  0
  3 27  1  0  0  0  0
  3 28  1  0  0  0  0
  4  5  1  0  0  0  0
  4  9  1  0  0  0  0
  4 29  1  0  0  0  0
  5  6  1  0  0  0  0
  5 30  1  0  0  0  0
  5 31  1  0  0  0  0
  6  7  1  0  0  0  0
  6 32  1  0  0  0  0
  6 33  1  0  0  0  0
  7  8  1  0  0  0  0
  7 34  1  0  0  0  0
  7 35  1  0  0  0  0
  8  9  1  0  0  0  0
  8 36  1  0  0  0  0
  8 37  1  0  0  0  0
  9 38  1  0  0  0  0
  9 39  1  0  0  0  0
 10 11  1  0  0  0  0
 10 25  2  0  0  0  0
 10 40  1  0  0  0  0
 11 12  2  0  0  0  0
 11 41  1  0  0  0  0
 12 13  1  0  0  0  0
 12 45  1  0  0  0  0
 13 24  2  0  0  0  0
 13 42  1  0  0  0  0
 14 15  2  0  0  0  0
 15 16  1  0  0  0  0
 15 17  1  0  0  0  0
 17 18  1  0  0  0  0
 17 21  2  0  0  0  0
 19 20  1  0  0  0  0
 19 21  1  0  0  0  0
 21 22  1  0  0  0  0
 23 24  1  0  0  0  0
 23 43  1  0  0  0  0
 24 25  1  0  0  0  0
 25 44  1  0  0  0  0
M  END
$$$$
20
  MOE2020           3D

 49 52  0  0  0  0  0  0  0  0999 V2000
   -3.7962   -8.8862   -8.5498 C   0  0  0  0  0  0  0  0  0  0  0  0
   -7.0711   -6.1127   -7.7786 C   0  0  0  0  0  0  0  0  0  0  0  0
   -3.9889   -9.6591   -4.6074 C   0  0  0  0  0  0  0  0  0  0  0  0
   -3.8048   -9.5190   -3.0962 C   0  0  0  0  0  0  0  0  0  0  0  0
   -3.1950  -10.8231   -2.5463 C   0  0  0  0  0  0  0  0  0  0  0  0
   -2.8918  -10.7183   -1.0498 C   0  0  0  0  0  0  0  0  0  0  0  0
   -1.9608   -9.5383   -0.7487 C   0  0  0  0  0  0  0  0  0  0  0  0
   -2.5806   -8.2270   -1.2543 C   0  0  0  0  0  0  0  0  0  0  0  0
   -2.9050   -8.3078   -2.7554 C   0  0  0  0  0  0  0  0  0  0  0  0
   -0.0077  -11.8646   -8.8755 C   0  0  0  0  0  0  0  0  0  0  0  0
    0.6058  -11.4295   -7.6863 C   0  0  0  0  0  0  0  0  0  0  0  0
    0.0973  -10.3109   -7.0026 C   0  0  0  0  0  0  0  0  0  0  0  0
   -1.0335   -9.6414   -7.5049 C   0  0  0  0  0  0  0  0  0  0  0  0
   -3.9226   -9.1362   -7.2460 N   0  0  0  0  0  0  0  0  0  0  0  0
   -4.8286   -8.4749   -6.4961 C   0  0  0  0  0  0  0  0  0  0  0  0
   -4.8437   -8.6432   -5.1284 O   0  0  0  0  0  0  0  0  0  0  0  0
   -5.6786   -7.5516   -7.1414 C   0  0  0  0  0  0  0  0  0  0  0  0
   -6.6934   -6.7178   -6.6917 N   0  0  0  0  0  0  0  0  0  0  0  0
   -6.3768   -6.4545   -8.9060 N   0  0  0  0  0  0  0  0  0  0  0  0
   -6.4987   -6.1184   -9.8568 H   0  0  0  0  0  0  0  0  0  0  0  0
   -5.4824   -7.4063   -8.4980 C   0  0  0  0  0  0  0  0  0  0  0  0
   -4.5649   -8.0628   -9.2719 N   0  0  0  0  0  0  0  0  0  0  0  0
   -2.7540   -9.4455   -9.1950 N   0  0  0  0  0  0  0  0  0  0  0  0
   -1.6777  -10.0879   -8.6824 C   0  0  0  0  0  0  0  0  0  0  0  0
   -1.1378  -11.1894   -9.3779 C   0  0  0  0  0  0  0  0  0  0  0  0
   -7.8773   -5.4007   -7.7812 H   0  0  0  0  0  0  0  0  0  0  0  0
   -2.9903   -9.6332   -5.0473 H   0  0  0  0  0  0  0  0  0  0  0  0
   -4.4229  -10.6291   -4.8549 H   0  0  0  0  0  0  0  0  0  0  0  0
   -4.7829   -9.3774   -2.6323 H   0  0  0  0  0  0  0  0  0  0  0  0
   -3.8774  -11.6547   -2.7221 H   0  0  0  0  0  0  0  0  0  0  0  0
   -2.2756  -11.0609   -3.0826 H   0  0  0  0  0  0  0  0  0  0  0  0
   -3.8272  -10.5678   -0.5168 H   0  0  0  0  0  0  0  0  0  0  0  0
   -2.4583  -11.6492   -0.6813 H   0  0  0  0  0  0  0  0  0  0  0  0
   -1.7800   -9.4698    0.3247 H   0  0  0  0  0  0  0  0  0  0  0  0
   -0.9904   -9.6965   -1.2222 H   0  0  0  0  0  0  0  0  0  0  0  0
   -3.4926   -8.0111   -0.6950 H   0  0  0  0  0  0  0  0  0  0  0  0
   -1.9020   -7.3964   -1.0650 H   0  0  0  0  0  0  0  0  0  0  0  0
   -1.9698   -8.3728   -3.3142 H   0  0  0  0  0  0  0  0  0  0  0  0
   -3.3877   -7.3827   -3.0769 H   0  0  0  0  0  0  0  0  0  0  0  0
    1.4788  -11.9386   -7.3090 H   0  0  0  0  0  0  0  0  0  0  0  0
    0.5718   -9.9625   -6.0976 H   0  0  0  0  0  0  0  0  0  0  0  0
   -1.4034   -8.7809   -6.9688 H   0  0  0  0  0  0  0  0  0  0  0  0
   -2.8211   -9.4600  -10.2050 H   0  0  0  0  0  0  0  0  0  0  0  0
   -1.5908  -11.5300  -10.2970 H   0  0  0  0  0  0  0  0  0  0  0  0
    0.5577  -13.0593   -9.6298 C   0  0  0  0  0  0  0  0  0  0  0  0
   -0.0680  -13.2151  -10.5091 H   0  0  0  0  0  0  0  0  0  0  0  0
    1.5830  -12.8144   -9.9079 H   0  0  0  0  0  0  0  0  0  0  0  0
    0.5094  -14.1684   -8.7600 O   0  0  0  0  0  0  0  0  0  0  0  0
   -0.4074  -14.2628   -8.5011 H   0  0  0  0  0  0  0  0  0  0  0  0
  1 14  1  0  0  0  0
  1 22  2  0  0  0  0
  1 23  1  0  0  0  0
  2 18  2  0  0  0  0
  2 19  1  0  0  0  0
  2 26  1  0  0  0  0
  3  4  1  0  0  0  0
  3 16  1  0  0  0  0
  3 27  1  0  0  0  0
  3 28  1  0  0  0  0
  4  5  1  0  0  0  0
  4  9  1  0  0  0  0
  4 29  1  0  0  0  0
  5  6  1  0  0  0  0
  5 30  1  0  0  0  0
  5 31  1  0  0  0  0
  6  7  1  0  0  0  0
  6 32  1  0  0  0  0
  6 33  1  0  0  0  0
  7  8  1  0  0  0  0
  7 34  1  0  0  0  0
  7 35  1  0  0  0  0
  8  9  1  0  0  0  0
  8 36  1  0  0  0  0
  8 37  1  0  0  0  0
  9 38  1  0  0  0  0
  9 39  1  0  0  0  0
 10 11  1  0  0  0  0
 10 25  2  0  0  0  0
 10 45  1  0  0  0  0
 11 12  2  0  0  0  0
 11 40  1  0  0  0  0
 12 13  1  0  0  0  0
 12 41  1  0  0  0  0
 13 24  2  0  0  0  0
 13 42  1  0  0  0  0
 14 15  2  0  0  0  0
 15 16  1  0  0  0  0
 15 17  1  0  0  0  0
 17 18  1  0  0  0  0
 17 21  2  0  0  0  0
 19 20  1  0  0  0  0
 19 21  1  0  0  0  0
 21 22  1  0  0  0  0
 23 24  1  0  0  0  0
 23 43  1  0  0  0  0
 24 25  1  0  0  0  0
 25 44  1  0  0  0  0
 45 46  1  0  0  0  0
 45 47  1  0  0  0  0
 45 48  1  0  0  0  0
 48 49  1  0  0  0  0
M  END
$$$$
21
  MOE2020           3D

 49 52  0  0  0  0  0  0  0  0999 V2000
   -3.7962   -8.8862   -8.5498 C   0  0  0  0  0  0  0  0  0  0  0  0
   -7.0711   -6.1127   -7.7786 C   0  0  0  0  0  0  0  0  0  0  0  0
   -3.9889   -9.6591   -4.6074 C   0  0  0  0  0  0  0  0  0  0  0  0
   -3.8048   -9.5190   -3.0962 C   0  0  0  0  0  0  0  0  0  0  0  0
   -3.1950  -10.8231   -2.5463 C   0  0  0  0  0  0  0  0  0  0  0  0
   -2.8918  -10.7183   -1.0498 C   0  0  0  0  0  0  0  0  0  0  0  0
   -1.9608   -9.5383   -0.7487 C   0  0  0  0  0  0  0  0  0  0  0  0
   -2.5806   -8.2270   -1.2543 C   0  0  0  0  0  0  0  0  0  0  0  0
   -2.9050   -8.3078   -2.7554 C   0  0  0  0  0  0  0  0  0  0  0  0
   -0.0077  -11.8646   -8.8755 C   0  0  0  0  0  0  0  0  0  0  0  0
    0.6058  -11.4295   -7.6863 C   0  0  0  0  0  0  0  0  0  0  0  0
    0.0973  -10.3109   -7.0026 C   0  0  0  0  0  0  0  0  0  0  0  0
   -1.0335   -9.6414   -7.5049 C   0  0  0  0  0  0  0  0  0  0  0  0
   -3.9226   -9.1362   -7.2460 N   0  0  0  0  0  0  0  0  0  0  0  0
   -4.8286   -8.4749   -6.4961 C   0  0  0  0  0  0  0  0  0  0  0  0
   -4.8437   -8.6432   -5.1284 O   0  0  0  0  0  0  0  0  0  0  0  0
   -5.6786   -7.5516   -7.1414 C   0  0  0  0  0  0  0  0  0  0  0  0
   -6.6934   -6.7178   -6.6917 N   0  0  0  0  0  0  0  0  0  0  0  0
   -6.3768   -6.4545   -8.9060 N   0  0  0  0  0  0  0  0  0  0  0  0
   -6.4987   -6.1184   -9.8568 H   0  0  0  0  0  0  0  0  0  0  0  0
   -5.4824   -7.4063   -8.4980 C   0  0  0  0  0  0  0  0  0  0  0  0
   -4.5649   -8.0628   -9.2719 N   0  0  0  0  0  0  0  0  0  0  0  0
   -2.7540   -9.4455   -9.1950 N   0  0  0  0  0  0  0  0  0  0  0  0
   -1.6777  -10.0879   -8.6824 C   0  0  0  0  0  0  0  0  0  0  0  0
   -1.1378  -11.1894   -9.3779 C   0  0  0  0  0  0  0  0  0  0  0  0
   -7.8773   -5.4007   -7.7812 H   0  0  0  0  0  0  0  0  0  0  0  0
   -2.9903   -9.6332   -5.0473 H   0  0  0  0  0  0  0  0  0  0  0  0
   -4.4229  -10.6291   -4.8549 H   0  0  0  0  0  0  0  0  0  0  0  0
   -4.7829   -9.3774   -2.6323 H   0  0  0  0  0  0  0  0  0  0  0  0
   -3.8774  -11.6547   -2.7221 H   0  0  0  0  0  0  0  0  0  0  0  0
   -2.2756  -11.0609   -3.0826 H   0  0  0  0  0  0  0  0  0  0  0  0
   -3.8272  -10.5678   -0.5168 H   0  0  0  0  0  0  0  0  0  0  0  0
   -2.4583  -11.6492   -0.6813 H   0  0  0  0  0  0  0  0  0  0  0  0
   -1.7800   -9.4698    0.3247 H   0  0  0  0  0  0  0  0  0  0  0  0
   -0.9904   -9.6965   -1.2222 H   0  0  0  0  0  0  0  0  0  0  0  0
   -3.4926   -8.0111   -0.6950 H   0  0  0  0  0  0  0  0  0  0  0  0
   -1.9020   -7.3964   -1.0650 H   0  0  0  0  0  0  0  0  0  0  0  0
   -1.9698   -8.3728   -3.3142 H   0  0  0  0  0  0  0  0  0  0  0  0
   -3.3877   -7.3827   -3.0769 H   0  0  0  0  0  0  0  0  0  0  0  0
    0.3930  -12.7117   -9.4104 H   0  0  0  0  0  0  0  0  0  0  0  0
    1.4788  -11.9386   -7.3090 H   0  0  0  0  0  0  0  0  0  0  0  0
   -1.4034   -8.7809   -6.9688 H   0  0  0  0  0  0  0  0  0  0  0  0
   -2.8211   -9.4600  -10.2050 H   0  0  0  0  0  0  0  0  0  0  0  0
   -1.5908  -11.5300  -10.2970 H   0  0  0  0  0  0  0  0  0  0  0  0
    0.6971   -9.8707   -5.8598 O   0  0  0  0  0  0  0  0  0  0  0  0
    0.0125   -8.7439   -5.3584 C   0  0  0  0  0  0  0  0  0  0  0  0
    0.5120   -8.3907   -4.4225 H   0  0  0  0  0  0  0  0  0  0  0  0
    0.0311   -7.9265   -6.1226 H   0  0  0  0  0  0  0  0  0  0  0  0
   -1.0478   -9.0213   -5.1340 H   0  0  0  0  0  0  0  0  0  0  0  0
  1 14  1  0  0  0  0
  1 22  2  0  0  0  0
  1 23  1  0  0  0  0
  2 18  2  0  0  0  0
  2 19  1  0  0  0  0
  2 26  1  0  0  0  0
  3  4  1  0  0  0  0
  3 16  1  0  0  0  0
  3 27  1  0  0  0  0
  3 28  1  0  0  0  0
  4  5  1  0  0  0  0
  4  9  1  0  0  0  0
  4 29  1  0  0  0  0
  5  6  1  0  0  0  0
  5 30  1  0  0  0  0
  5 31  1  0  0  0  0
  6  7  1  0  0  0  0
  6 32  1  0  0  0  0
  6 33  1  0  0  0  0
  7  8  1  0  0  0  0
  7 34  1  0  0  0  0
  7 35  1  0  0  0  0
  8  9  1  0  0  0  0
  8 36  1  0  0  0  0
  8 37  1  0  0  0  0
  9 38  1  0  0  0  0
  9 39  1  0  0  0  0
 10 11  1  0  0  0  0
 10 25  2  0  0  0  0
 10 40  1  0  0  0  0
 11 12  2  0  0  0  0
 11 41  1  0  0  0  0
 12 13  1  0  0  0  0
 12 45  1  0  0  0  0
 13 24  2  0  0  0  0
 13 42  1  0  0  0  0
 14 15  2  0  0  0  0
 15 16  1  0  0  0  0
 15 17  1  0  0  0  0
 17 18  1  0  0  0  0
 17 21  2  0  0  0  0
 19 20  1  0  0  0  0
 19 21  1  0  0  0  0
 21 22  1  0  0  0  0
 23 24  1  0  0  0  0
 23 43  1  0  0  0  0
 24 25  1  0  0  0  0
 25 44  1  0  0  0  0
 45 46  1  0  0  0  0
 46 47  1  0  0  0  0
 46 48  1  0  0  0  0
 46 49  1  0  0  0  0
M  END
$$$$
22
  MOE2020           3D

 49 52  0  0  0  0  0  0  0  0999 V2000
   -3.7962   -8.8862   -8.5498 C   0  0  0  0  0  0  0  0  0  0  0  0
   -7.0711   -6.1127   -7.7786 C   0  0  0  0  0  0  0  0  0  0  0  0
   -3.9889   -9.6591   -4.6074 C   0  0  0  0  0  0  0  0  0  0  0  0
   -3.8048   -9.5190   -3.0962 C   0  0  0  0  0  0  0  0  0  0  0  0
   -3.1950  -10.8231   -2.5463 C   0  0  0  0  0  0  0  0  0  0  0  0
   -2.8918  -10.7183   -1.0498 C   0  0  0  0  0  0  0  0  0  0  0  0
   -1.9608   -9.5383   -0.7487 C   0  0  0  0  0  0  0  0  0  0  0  0
   -2.5806   -8.2270   -1.2543 C   0  0  0  0  0  0  0  0  0  0  0  0
   -2.9050   -8.3078   -2.7554 C   0  0  0  0  0  0  0  0  0  0  0  0
   -0.0077  -11.8646   -8.8755 C   0  0  0  0  0  0  0  0  0  0  0  0
    0.6058  -11.4295   -7.6863 C   0  0  0  0  0  0  0  0  0  0  0  0
    0.0973  -10.3109   -7.0026 C   0  0  0  0  0  0  0  0  0  0  0  0
   -1.0335   -9.6414   -7.5049 C   0  0  0  0  0  0  0  0  0  0  0  0
   -3.9226   -9.1362   -7.2460 N   0  0  0  0  0  0  0  0  0  0  0  0
   -4.8286   -8.4749   -6.4961 C   0  0  0  0  0  0  0  0  0  0  0  0
   -4.8437   -8.6432   -5.1284 O   0  0  0  0  0  0  0  0  0  0  0  0
   -5.6786   -7.5516   -7.1414 C   0  0  0  0  0  0  0  0  0  0  0  0
   -6.6934   -6.7178   -6.6917 N   0  0  0  0  0  0  0  0  0  0  0  0
   -6.3768   -6.4545   -8.9060 N   0  0  0  0  0  0  0  0  0  0  0  0
   -6.4987   -6.1184   -9.8568 H   0  0  0  0  0  0  0  0  0  0  0  0
   -5.4824   -7.4063   -8.4980 C   0  0  0  0  0  0  0  0  0  0  0  0
   -4.5649   -8.0628   -9.2719 N   0  0  0  0  0  0  0  0  0  0  0  0
   -2.7540   -9.4455   -9.1950 N   0  0  0  0  0  0  0  0  0  0  0  0
   -1.6777  -10.0879   -8.6824 C   0  0  0  0  0  0  0  0  0  0  0  0
   -1.1378  -11.1894   -9.3779 C   0  0  0  0  0  0  0  0  0  0  0  0
   -7.8773   -5.4007   -7.7812 H   0  0  0  0  0  0  0  0  0  0  0  0
   -2.9903   -9.6332   -5.0473 H   0  0  0  0  0  0  0  0  0  0  0  0
   -4.4229  -10.6291   -4.8549 H   0  0  0  0  0  0  0  0  0  0  0  0
   -4.7829   -9.3774   -2.6323 H   0  0  0  0  0  0  0  0  0  0  0  0
   -3.8774  -11.6547   -2.7221 H   0  0  0  0  0  0  0  0  0  0  0  0
   -2.2756  -11.0609   -3.0826 H   0  0  0  0  0  0  0  0  0  0  0  0
   -3.8272  -10.5678   -0.5168 H   0  0  0  0  0  0  0  0  0  0  0  0
   -2.4583  -11.6492   -0.6813 H   0  0  0  0  0  0  0  0  0  0  0  0
   -1.7800   -9.4698    0.3247 H   0  0  0  0  0  0  0  0  0  0  0  0
   -0.9904   -9.6965   -1.2222 H   0  0  0  0  0  0  0  0  0  0  0  0
   -3.4926   -8.0111   -0.6950 H   0  0  0  0  0  0  0  0  0  0  0  0
   -1.9020   -7.3964   -1.0650 H   0  0  0  0  0  0  0  0  0  0  0  0
   -1.9698   -8.3728   -3.3142 H   0  0  0  0  0  0  0  0  0  0  0  0
   -3.3877   -7.3827   -3.0769 H   0  0  0  0  0  0  0  0  0  0  0  0
    0.3930  -12.7117   -9.4104 H   0  0  0  0  0  0  0  0  0  0  0  0
    1.4788  -11.9386   -7.3090 H   0  0  0  0  0  0  0  0  0  0  0  0
   -1.4034   -8.7809   -6.9688 H   0  0  0  0  0  0  0  0  0  0  0  0
   -2.8211   -9.4600  -10.2050 H   0  0  0  0  0  0  0  0  0  0  0  0
   -1.5908  -11.5300  -10.2970 H   0  0  0  0  0  0  0  0  0  0  0  0
    0.8540   -9.7562   -5.5613 S   0  0  0  0  0  0  0  0  0  0  0  0
   -0.0246   -8.3097   -4.9183 C   0  0  0  0  0  0  0  0  0  0  0  0
    0.4744   -7.9559   -3.9813 H   0  0  0  0  0  0  0  0  0  0  0  0
   -0.0060   -7.4923   -5.6825 H   0  0  0  0  0  0  0  0  0  0  0  0
   -1.0853   -8.5863   -4.6944 H   0  0  0  0  0  0  0  0  0  0  0  0
  1 14  1  0  0  0  0
  1 22  2  0  0  0  0
  1 23  1  0  0  0  0
  2 18  2  0  0  0  0
  2 19  1  0  0  0  0
  2 26  1  0  0  0  0
  3  4  1  0  0  0  0
  3 16  1  0  0  0  0
  3 27  1  0  0  0  0
  3 28  1  0  0  0  0
  4  5  1  0  0  0  0
  4  9  1  0  0  0  0
  4 29  1  0  0  0  0
  5  6  1  0  0  0  0
  5 30  1  0  0  0  0
  5 31  1  0  0  0  0
  6  7  1  0  0  0  0
  6 32  1  0  0  0  0
  6 33  1  0  0  0  0
  7  8  1  0  0  0  0
  7 34  1  0  0  0  0
  7 35  1  0  0  0  0
  8  9  1  0  0  0  0
  8 36  1  0  0  0  0
  8 37  1  0  0  0  0
  9 38  1  0  0  0  0
  9 39  1  0  0  0  0
 10 11  1  0  0  0  0
 10 25  2  0  0  0  0
 10 40  1  0  0  0  0
 11 12  2  0  0  0  0
 11 41  1  0  0  0  0
 12 13  1  0  0  0  0
 12 45  1  0  0  0  0
 13 24  2  0  0  0  0
 13 42  1  0  0  0  0
 14 15  2  0  0  0  0
 15 16  1  0  0  0  0
 15 17  1  0  0  0  0
 17 18  1  0  0  0  0
 17 21  2  0  0  0  0
 19 20  1  0  0  0  0
 19 21  1  0  0  0  0
 21 22  1  0  0  0  0
 23 24  1  0  0  0  0
 23 43  1  0  0  0  0
 24 25  1  0  0  0  0
 25 44  1  0  0  0  0
 45 46  1  0  0  0  0
 46 47  1  0  0  0  0
 46 48  1  0  0  0  0
 46 49  1  0  0  0  0
M  END
$$$$
26
  MOE2020           3D

 49 52  0  0  0  0  0  0  0  0999 V2000
   -3.7962   -8.8862   -8.5498 C   0  0  0  0  0  0  0  0  0  0  0  0
   -7.0711   -6.1127   -7.7786 C   0  0  0  0  0  0  0  0  0  0  0  0
   -3.9889   -9.6591   -4.6074 C   0  0  0  0  0  0  0  0  0  0  0  0
   -3.8048   -9.5190   -3.0962 C   0  0  0  0  0  0  0  0  0  0  0  0
   -3.1950  -10.8231   -2.5463 C   0  0  0  0  0  0  0  0  0  0  0  0
   -2.8918  -10.7183   -1.0498 C   0  0  0  0  0  0  0  0  0  0  0  0
   -1.9608   -9.5383   -0.7487 C   0  0  0  0  0  0  0  0  0  0  0  0
   -2.5806   -8.2270   -1.2543 C   0  0  0  0  0  0  0  0  0  0  0  0
   -2.9050   -8.3078   -2.7554 C   0  0  0  0  0  0  0  0  0  0  0  0
   -0.0077  -11.8646   -8.8755 C   0  0  0  0  0  0  0  0  0  0  0  0
    0.6058  -11.4295   -7.6863 C   0  0  0  0  0  0  0  0  0  0  0  0
    0.0973  -10.3109   -7.0026 C   0  0  0  0  0  0  0  0  0  0  0  0
   -1.0335   -9.6414   -7.5049 C   0  0  0  0  0  0  0  0  0  0  0  0
   -3.9226   -9.1362   -7.2460 N   0  0  0  0  0  0  0  0  0  0  0  0
   -4.8286   -8.4749   -6.4961 C   0  0  0  0  0  0  0  0  0  0  0  0
   -4.8437   -8.6432   -5.1284 O   0  0  0  0  0  0  0  0  0  0  0  0
   -5.6786   -7.5516   -7.1414 C   0  0  0  0  0  0  0  0  0  0  0  0
   -6.6934   -6.7178   -6.6917 N   0  0  0  0  0  0  0  0  0  0  0  0
   -6.3768   -6.4545   -8.9060 N   0  0  0  0  0  0  0  0  0  0  0  0
   -6.4987   -6.1184   -9.8568 H   0  0  0  0  0  0  0  0  0  0  0  0
   -5.4824   -7.4063   -8.4980 C   0  0  0  0  0  0  0  0  0  0  0  0
   -4.5649   -8.0628   -9.2719 N   0  0  0  0  0  0  0  0  0  0  0  0
   -2.7540   -9.4455   -9.1950 N   0  0  0  0  0  0  0  0  0  0  0  0
   -1.6777  -10.0879   -8.6824 C   0  0  0  0  0  0  0  0  0  0  0  0
   -1.1378  -11.1894   -9.3779 C   0  0  0  0  0  0  0  0  0  0  0  0
   -7.8773   -5.4007   -7.7812 H   0  0  0  0  0  0  0  0  0  0  0  0
   -2.9903   -9.6332   -5.0473 H   0  0  0  0  0  0  0  0  0  0  0  0
   -4.4229  -10.6291   -4.8549 H   0  0  0  0  0  0  0  0  0  0  0  0
   -4.7829   -9.3774   -2.6323 H   0  0  0  0  0  0  0  0  0  0  0  0
   -3.8774  -11.6547   -2.7221 H   0  0  0  0  0  0  0  0  0  0  0  0
   -2.2756  -11.0609   -3.0826 H   0  0  0  0  0  0  0  0  0  0  0  0
   -3.8272  -10.5678   -0.5168 H   0  0  0  0  0  0  0  0  0  0  0  0
   -2.4583  -11.6492   -0.6813 H   0  0  0  0  0  0  0  0  0  0  0  0
   -1.7800   -9.4698    0.3247 H   0  0  0  0  0  0  0  0  0  0  0  0
   -0.9904   -9.6965   -1.2222 H   0  0  0  0  0  0  0  0  0  0  0  0
   -3.4926   -8.0111   -0.6950 H   0  0  0  0  0  0  0  0  0  0  0  0
   -1.9020   -7.3964   -1.0650 H   0  0  0  0  0  0  0  0  0  0  0  0
   -1.9698   -8.3728   -3.3142 H   0  0  0  0  0  0  0  0  0  0  0  0
   -3.3877   -7.3827   -3.0769 H   0  0  0  0  0  0  0  0  0  0  0  0
    0.3930  -12.7117   -9.4104 H   0  0  0  0  0  0  0  0  0  0  0  0
    0.5718   -9.9625   -6.0976 H   0  0  0  0  0  0  0  0  0  0  0  0
   -1.4034   -8.7809   -6.9688 H   0  0  0  0  0  0  0  0  0  0  0  0
   -2.8211   -9.4600  -10.2050 H   0  0  0  0  0  0  0  0  0  0  0  0
   -1.5908  -11.5300  -10.2970 H   0  0  0  0  0  0  0  0  0  0  0  0
    1.7105  -12.0730   -7.2092 O   0  0  0  0  0  0  0  0  0  0  0  0
    2.1452  -11.4635   -6.0148 C   0  0  0  0  0  0  0  0  0  0  0  0
    3.0508  -11.9979   -5.6313 H   0  0  0  0  0  0  0  0  0  0  0  0
    2.4000  -10.3926   -6.2131 H   0  0  0  0  0  0  0  0  0  0  0  0
    1.3295  -11.5174   -5.2497 H   0  0  0  0  0  0  0  0  0  0  0  0
  1 14  1  0  0  0  0
  1 22  2  0  0  0  0
  1 23  1  0  0  0  0
  2 18  2  0  0  0  0
  2 19  1  0  0  0  0
  2 26  1  0  0  0  0
  3  4  1  0  0  0  0
  3 16  1  0  0  0  0
  3 27  1  0  0  0  0
  3 28  1  0  0  0  0
  4  5  1  0  0  0  0
  4  9  1  0  0  0  0
  4 29  1  0  0  0  0
  5  6  1  0  0  0  0
  5 30  1  0  0  0  0
  5 31  1  0  0  0  0
  6  7  1  0  0  0  0
  6 32  1  0  0  0  0
  6 33  1  0  0  0  0
  7  8  1  0  0  0  0
  7 34  1  0  0  0  0
  7 35  1  0  0  0  0
  8  9  1  0  0  0  0
  8 36  1  0  0  0  0
  8 37  1  0  0  0  0
  9 38  1  0  0  0  0
  9 39  1  0  0  0  0
 10 11  1  0  0  0  0
 10 25  2  0  0  0  0
 10 40  1  0  0  0  0
 11 12  2  0  0  0  0
 11 45  1  0  0  0  0
 12 13  1  0  0  0  0
 12 41  1  0  0  0  0
 13 24  2  0  0  0  0
 13 42  1  0  0  0  0
 14 15  2  0  0  0  0
 15 16  1  0  0  0  0
 15 17  1  0  0  0  0
 17 18  1  0  0  0  0
 17 21  2  0  0  0  0
 19 20  1  0  0  0  0
 19 21  1  0  0  0  0
 21 22  1  0  0  0  0
 23 24  1  0  0  0  0
 23 43  1  0  0  0  0
 24 25  1  0  0  0  0
 25 44  1  0  0  0  0
 45 46  1  0  0  0  0
 46 47  1  0  0  0  0
 46 48  1  0  0  0  0
 46 49  1  0  0  0  0
M  END
$$$$
28
  MOE2020           3D

 53 56  0  0  0  0  0  0  0  0999 V2000
   -3.7962   -8.8862   -8.5498 C   0  0  0  0  0  0  0  0  0  0  0  0
   -7.0711   -6.1127   -7.7786 C   0  0  0  0  0  0  0  0  0  0  0  0
   -3.9889   -9.6591   -4.6074 C   0  0  0  0  0  0  0  0  0  0  0  0
   -3.8048   -9.5190   -3.0962 C   0  0  0  0  0  0  0  0  0  0  0  0
   -3.1950  -10.8231   -2.5463 C   0  0  0  0  0  0  0  0  0  0  0  0
   -2.8918  -10.7183   -1.0498 C   0  0  0  0  0  0  0  0  0  0  0  0
   -1.9608   -9.5383   -0.7487 C   0  0  0  0  0  0  0  0  0  0  0  0
   -2.5806   -8.2270   -1.2543 C   0  0  0  0  0  0  0  0  0  0  0  0
   -2.9050   -8.3078   -2.7554 C   0  0  0  0  0  0  0  0  0  0  0  0
   -0.0077  -11.8646   -8.8755 C   0  0  0  0  0  0  0  0  0  0  0  0
    0.6058  -11.4295   -7.6863 C   0  0  0  0  0  0  0  0  0  0  0  0
    0.0973  -10.3109   -7.0026 C   0  0  0  0  0  0  0  0  0  0  0  0
   -1.0335   -9.6414   -7.5049 C   0  0  0  0  0  0  0  0  0  0  0  0
   -3.9226   -9.1362   -7.2460 N   0  0  0  0  0  0  0  0  0  0  0  0
   -4.8286   -8.4749   -6.4961 C   0  0  0  0  0  0  0  0  0  0  0  0
   -4.8437   -8.6432   -5.1284 O   0  0  0  0  0  0  0  0  0  0  0  0
   -5.6786   -7.5516   -7.1414 C   0  0  0  0  0  0  0  0  0  0  0  0
   -6.6934   -6.7178   -6.6917 N   0  0  0  0  0  0  0  0  0  0  0  0
   -6.3768   -6.4545   -8.9060 N   0  0  0  0  0  0  0  0  0  0  0  0
   -6.4987   -6.1184   -9.8568 H   0  0  0  0  0  0  0  0  0  0  0  0
   -5.4824   -7.4063   -8.4980 C   0  0  0  0  0  0  0  0  0  0  0  0
   -4.5649   -8.0628   -9.2719 N   0  0  0  0  0  0  0  0  0  0  0  0
   -2.7540   -9.4455   -9.1950 N   0  0  0  0  0  0  0  0  0  0  0  0
   -1.6777  -10.0879   -8.6824 C   0  0  0  0  0  0  0  0  0  0  0  0
   -1.1378  -11.1894   -9.3779 C   0  0  0  0  0  0  0  0  0  0  0  0
   -7.8773   -5.4007   -7.7812 H   0  0  0  0  0  0  0  0  0  0  0  0
   -2.9903   -9.6332   -5.0473 H   0  0  0  0  0  0  0  0  0  0  0  0
   -4.4229  -10.6291   -4.8549 H   0  0  0  0  0  0  0  0  0  0  0  0
   -4.7829   -9.3774   -2.6323 H   0  0  0  0  0  0  0  0  0  0  0  0
   -3.8774  -11.6547   -2.7221 H   0  0  0  0  0  0  0  0  0  0  0  0
   -2.2756  -11.0609   -3.0826 H   0  0  0  0  0  0  0  0  0  0  0  0
   -3.8272  -10.5678   -0.5168 H   0  0  0  0  0  0  0  0  0  0  0  0
   -2.4583  -11.6492   -0.6813 H   0  0  0  0  0  0  0  0  0  0  0  0
   -1.7800   -9.4698    0.3247 H   0  0  0  0  0  0  0  0  0  0  0  0
   -0.9904   -9.6965   -1.2222 H   0  0  0  0  0  0  0  0  0  0  0  0
   -3.4926   -8.0111   -0.6950 H   0  0  0  0  0  0  0  0  0  0  0  0
   -1.9020   -7.3964   -1.0650 H   0  0  0  0  0  0  0  0  0  0  0  0
   -1.9698   -8.3728   -3.3142 H   0  0  0  0  0  0  0  0  0  0  0  0
   -3.3877   -7.3827   -3.0769 H   0  0  0  0  0  0  0  0  0  0  0  0
    0.3930  -12.7117   -9.4104 H   0  0  0  0  0  0  0  0  0  0  0  0
    0.5718   -9.9625   -6.0976 H   0  0  0  0  0  0  0  0  0  0  0  0
   -1.4034   -8.7809   -6.9688 H   0  0  0  0  0  0  0  0  0  0  0  0
   -2.8211   -9.4600  -10.2050 H   0  0  0  0  0  0  0  0  0  0  0  0
   -1.5908  -11.5300  -10.2970 H   0  0  0  0  0  0  0  0  0  0  0  0
    1.8202  -12.1370   -7.1618 S   0  0  0  0  0  0  0  0  0  0  0  0
    1.9392  -13.4074   -7.8669 O   0  0  0  0  0  0  0  0  0  0  0  0
    2.9184  -11.1792   -7.1296 O   0  0  0  0  0  0  0  0  0  0  0  0
    1.5305  -12.5544   -5.5145 N   0  0  0  0  0  0  0  0  0  0  0  0
    1.0597  -13.4229   -5.3087 H   0  0  0  0  0  0  0  0  0  0  0  0
    1.8312  -11.5811   -4.4845 C   0  0  0  0  0  0  0  0  0  0  0  0
    1.5804  -12.0338   -3.5253 H   0  0  0  0  0  0  0  0  0  0  0  0
    2.8949  -11.3529   -4.5527 H   0  0  0  0  0  0  0  0  0  0  0  0
    1.2201  -10.6995   -4.6816 H   0  0  0  0  0  0  0  0  0  0  0  0
  1 14  1  0  0  0  0
  1 22  2  0  0  0  0
  1 23  1  0  0  0  0
  2 18  2  0  0  0  0
  2 19  1  0  0  0  0
  2 26  1  0  0  0  0
  3  4  1  0  0  0  0
  3 16  1  0  0  0  0
  3 27  1  0  0  0  0
  3 28  1  0  0  0  0
  4  5  1  0  0  0  0
  4  9  1  0  0  0  0
  4 29  1  0  0  0  0
  5  6  1  0  0  0  0
  5 30  1  0  0  0  0
  5 31  1  0  0  0  0
  6  7  1  0  0  0  0
  6 32  1  0  0  0  0
  6 33  1  0  0  0  0
  7  8  1  0  0  0  0
  7 34  1  0  0  0  0
  7 35  1  0  0  0  0
  8  9  1  0  0  0  0
  8 36  1  0  0  0  0
  8 37  1  0  0  0  0
  9 38  1  0  0  0  0
  9 39  1  0  0  0  0
 10 11  1  0  0  0  0
 10 25  2  0  0  0  0
 10 40  1  0  0  0  0
 11 12  2  0  0  0  0
 11 45  1  0  0  0  0
 12 13  1  0  0  0  0
 12 41  1  0  0  0  0
 13 24  2  0  0  0  0
 13 42  1  0  0  0  0
 14 15  2  0  0  0  0
 15 16  1  0  0  0  0
 15 17  1  0  0  0  0
 17 18  1  0  0  0  0
 17 21  2  0  0  0  0
 19 20  1  0  0  0  0
 19 21  1  0  0  0  0
 21 22  1  0  0  0  0
 23 24  1  0  0  0  0
 23 43  1  0  0  0  0
 24 25  1  0  0  0  0
 25 44  1  0  0  0  0
 45 46  2  0  0  0  0
 45 47  2  0  0  0  0
 45 48  1  0  0  0  0
 48 49  1  0  0  0  0
 48 50  1  0  0  0  0
 50 51  1  0  0  0  0
 50 52  1  0  0  0  0
 50 53  1  0  0  0  0
M  END
$$$$
29
  MOE2020           3D

 56 59  0  0  0  0  0  0  0  0999 V2000
   -3.7962   -8.8862   -8.5498 C   0  0  0  0  0  0  0  0  0  0  0  0
   -7.0711   -6.1127   -7.7786 C   0  0  0  0  0  0  0  0  0  0  0  0
   -3.9889   -9.6591   -4.6074 C   0  0  0  0  0  0  0  0  0  0  0  0
   -3.8048   -9.5190   -3.0962 C   0  0  0  0  0  0  0  0  0  0  0  0
   -3.1950  -10.8231   -2.5463 C   0  0  0  0  0  0  0  0  0  0  0  0
   -2.8918  -10.7183   -1.0498 C   0  0  0  0  0  0  0  0  0  0  0  0
   -1.9608   -9.5383   -0.7487 C   0  0  0  0  0  0  0  0  0  0  0  0
   -2.5806   -8.2270   -1.2543 C   0  0  0  0  0  0  0  0  0  0  0  0
   -2.9050   -8.3078   -2.7554 C   0  0  0  0  0  0  0  0  0  0  0  0
   -0.0077  -11.8646   -8.8755 C   0  0  0  0  0  0  0  0  0  0  0  0
    0.6058  -11.4295   -7.6863 C   0  0  0  0  0  0  0  0  0  0  0  0
    0.0973  -10.3109   -7.0026 C   0  0  0  0  0  0  0  0  0  0  0  0
   -1.0335   -9.6414   -7.5049 C   0  0  0  0  0  0  0  0  0  0  0  0
   -3.9226   -9.1362   -7.2460 N   0  0  0  0  0  0  0  0  0  0  0  0
   -4.8286   -8.4749   -6.4961 C   0  0  0  0  0  0  0  0  0  0  0  0
   -4.8437   -8.6432   -5.1284 O   0  0  0  0  0  0  0  0  0  0  0  0
   -5.6786   -7.5516   -7.1414 C   0  0  0  0  0  0  0  0  0  0  0  0
   -6.6934   -6.7178   -6.6917 N   0  0  0  0  0  0  0  0  0  0  0  0
   -6.3768   -6.4545   -8.9060 N   0  0  0  0  0  0  0  0  0  0  0  0
   -6.4987   -6.1184   -9.8568 H   0  0  0  0  0  0  0  0  0  0  0  0
   -5.4824   -7.4063   -8.4980 C   0  0  0  0  0  0  0  0  0  0  0  0
   -4.5649   -8.0628   -9.2719 N   0  0  0  0  0  0  0  0  0  0  0  0
   -2.7540   -9.4455   -9.1950 N   0  0  0  0  0  0  0  0  0  0  0  0
   -1.6777  -10.0879   -8.6824 C   0  0  0  0  0  0  0  0  0  0  0  0
   -1.1378  -11.1894   -9.3779 C   0  0  0  0  0  0  0  0  0  0  0  0
   -7.8773   -5.4007   -7.7812 H   0  0  0  0  0  0  0  0  0  0  0  0
   -2.9903   -9.6332   -5.0473 H   0  0  0  0  0  0  0  0  0  0  0  0
   -4.4229  -10.6291   -4.8549 H   0  0  0  0  0  0  0  0  0  0  0  0
   -4.7829   -9.3774   -2.6323 H   0  0  0  0  0  0  0  0  0  0  0  0
   -3.8774  -11.6547   -2.7221 H   0  0  0  0  0  0  0  0  0  0  0  0
   -2.2756  -11.0609   -3.0826 H   0  0  0  0  0  0  0  0  0  0  0  0
   -3.8272  -10.5678   -0.5168 H   0  0  0  0  0  0  0  0  0  0  0  0
   -2.4583  -11.6492   -0.6813 H   0  0  0  0  0  0  0  0  0  0  0  0
   -1.7800   -9.4698    0.3247 H   0  0  0  0  0  0  0  0  0  0  0  0
   -0.9904   -9.6965   -1.2222 H   0  0  0  0  0  0  0  0  0  0  0  0
   -3.4926   -8.0111   -0.6950 H   0  0  0  0  0  0  0  0  0  0  0  0
   -1.9020   -7.3964   -1.0650 H   0  0  0  0  0  0  0  0  0  0  0  0
   -1.9698   -8.3728   -3.3142 H   0  0  0  0  0  0  0  0  0  0  0  0
   -3.3877   -7.3827   -3.0769 H   0  0  0  0  0  0  0  0  0  0  0  0
    0.3930  -12.7117   -9.4104 H   0  0  0  0  0  0  0  0  0  0  0  0
    0.5718   -9.9625   -6.0976 H   0  0  0  0  0  0  0  0  0  0  0  0
   -1.4034   -8.7809   -6.9688 H   0  0  0  0  0  0  0  0  0  0  0  0
   -2.8211   -9.4600  -10.2050 H   0  0  0  0  0  0  0  0  0  0  0  0
   -1.5908  -11.5300  -10.2970 H   0  0  0  0  0  0  0  0  0  0  0  0
    1.8202  -12.1370   -7.1618 S   0  0  0  0  0  0  0  0  0  0  0  0
    1.9392  -13.4074   -7.8669 O   0  0  0  0  0  0  0  0  0  0  0  0
    2.9184  -11.1792   -7.1296 O   0  0  0  0  0  0  0  0  0  0  0  0
    1.5680  -12.4996   -5.7284 N   0  0  0  0  0  0  0  0  0  0  0  0
    1.1154  -13.8338   -5.3873 C   0  0  0  0  0  0  0  0  0  0  0  0
    1.0139  -14.4428   -6.3210 H   0  0  0  0  0  0  0  0  0  0  0  0
    1.8595  -14.3173   -4.7066 H   0  0  0  0  0  0  0  0  0  0  0  0
    0.1242  -13.7711   -4.8734 H   0  0  0  0  0  0  0  0  0  0  0  0
    1.7772  -11.5173   -4.6845 C   0  0  0  0  0  0  0  0  0  0  0  0
    1.5376  -11.9721   -3.6911 H   0  0  0  0  0  0  0  0  0  0  0  0
    2.8451  -11.1831   -4.6946 H   0  0  0  0  0  0  0  0  0  0  0  0
    1.1095  -10.6376   -4.8620 H   0  0  0  0  0  0  0  0  0  0  0  0
  1 14  1  0  0  0  0
  1 22  2  0  0  0  0
  1 23  1  0  0  0  0
  2 18  2  0  0  0  0
  2 19  1  0  0  0  0
  2 26  1  0  0  0  0
  3  4  1  0  0  0  0
  3 16  1  0  0  0  0
  3 27  1  0  0  0  0
  3 28  1  0  0  0  0
  4  5  1  0  0  0  0
  4  9  1  0  0  0  0
  4 29  1  0  0  0  0
  5  6  1  0  0  0  0
  5 30  1  0  0  0  0
  5 31  1  0  0  0  0
  6  7  1  0  0  0  0
  6 32  1  0  0  0  0
  6 33  1  0  0  0  0
  7  8  1  0  0  0  0
  7 34  1  0  0  0  0
  7 35  1  0  0  0  0
  8  9  1  0  0  0  0
  8 36  1  0  0  0  0
  8 37  1  0  0  0  0
  9 38  1  0  0  0  0
  9 39  1  0  0  0  0
 10 11  1  0  0  0  0
 10 25  2  0  0  0  0
 10 40  1  0  0  0  0
 11 12  2  0  0  0  0
 11 45  1  0  0  0  0
 12 13  1  0  0  0  0
 12 41  1  0  0  0  0
 13 24  2  0  0  0  0
 13 42  1  0  0  0  0
 14 15  2  0  0  0  0
 15 16  1  0  0  0  0
 15 17  1  0  0  0  0
 17 18  1  0  0  0  0
 17 21  2  0  0  0  0
 19 20  1  0  0  0  0
 19 21  1  0  0  0  0
 21 22  1  0  0  0  0
 23 24  1  0  0  0  0
 23 43  1  0  0  0  0
 24 25  1  0  0  0  0
 25 44  1  0  0  0  0
 45 46  2  0  0  0  0
 45 47  2  0  0  0  0
 45 48  1  0  0  0  0
 48 49  1  0  0  0  0
 48 53  1  0  0  0  0
 49 50  1  0  0  0  0
 49 51  1  0  0  0  0
 49 52  1  0  0  0  0
 53 54  1  0  0  0  0
 53 55  1  0  0  0  0
 53 56  1  0  0  0  0
M  END
$$$$
30
  MOE2020           3D

 51 54  0  0  0  0  0  0  0  0999 V2000
   -3.7962   -8.8862   -8.5498 C   0  0  0  0  0  0  0  0  0  0  0  0
   -7.0711   -6.1127   -7.7786 C   0  0  0  0  0  0  0  0  0  0  0  0
   -3.9889   -9.6591   -4.6074 C   0  0  0  0  0  0  0  0  0  0  0  0
   -3.8048   -9.5190   -3.0962 C   0  0  0  0  0  0  0  0  0  0  0  0
   -3.1950  -10.8231   -2.5463 C   0  0  0  0  0  0  0  0  0  0  0  0
   -2.8918  -10.7183   -1.0498 C   0  0  0  0  0  0  0  0  0  0  0  0
   -1.9608   -9.5383   -0.7487 C   0  0  0  0  0  0  0  0  0  0  0  0
   -2.5806   -8.2270   -1.2543 C   0  0  0  0  0  0  0  0  0  0  0  0
   -2.9050   -8.3078   -2.7554 C   0  0  0  0  0  0  0  0  0  0  0  0
   -0.0077  -11.8646   -8.8755 C   0  0  0  0  0  0  0  0  0  0  0  0
    0.6058  -11.4295   -7.6863 C   0  0  0  0  0  0  0  0  0  0  0  0
    0.0973  -10.3109   -7.0026 C   0  0  0  0  0  0  0  0  0  0  0  0
   -1.0335   -9.6414   -7.5049 C   0  0  0  0  0  0  0  0  0  0  0  0
   -3.9226   -9.1362   -7.2460 N   0  0  0  0  0  0  0  0  0  0  0  0
   -4.8286   -8.4749   -6.4961 C   0  0  0  0  0  0  0  0  0  0  0  0
   -4.8437   -8.6432   -5.1284 O   0  0  0  0  0  0  0  0  0  0  0  0
   -5.6786   -7.5516   -7.1414 C   0  0  0  0  0  0  0  0  0  0  0  0
   -6.6934   -6.7178   -6.6917 N   0  0  0  0  0  0  0  0  0  0  0  0
   -6.3768   -6.4545   -8.9060 N   0  0  0  0  0  0  0  0  0  0  0  0
   -6.4987   -6.1184   -9.8568 H   0  0  0  0  0  0  0  0  0  0  0  0
   -5.4824   -7.4063   -8.4980 C   0  0  0  0  0  0  0  0  0  0  0  0
   -4.5649   -8.0628   -9.2719 N   0  0  0  0  0  0  0  0  0  0  0  0
   -2.7540   -9.4455   -9.1950 N   0  0  0  0  0  0  0  0  0  0  0  0
   -1.6777  -10.0879   -8.6824 C   0  0  0  0  0  0  0  0  0  0  0  0
   -1.1378  -11.1894   -9.3779 C   0  0  0  0  0  0  0  0  0  0  0  0
   -7.8773   -5.4007   -7.7812 H   0  0  0  0  0  0  0  0  0  0  0  0
   -2.9903   -9.6332   -5.0473 H   0  0  0  0  0  0  0  0  0  0  0  0
   -4.4229  -10.6291   -4.8549 H   0  0  0  0  0  0  0  0  0  0  0  0
   -4.7829   -9.3774   -2.6323 H   0  0  0  0  0  0  0  0  0  0  0  0
   -3.8774  -11.6547   -2.7221 H   0  0  0  0  0  0  0  0  0  0  0  0
   -2.2756  -11.0609   -3.0826 H   0  0  0  0  0  0  0  0  0  0  0  0
   -3.8272  -10.5678   -0.5168 H   0  0  0  0  0  0  0  0  0  0  0  0
   -2.4583  -11.6492   -0.6813 H   0  0  0  0  0  0  0  0  0  0  0  0
   -1.7800   -9.4698    0.3247 H   0  0  0  0  0  0  0  0  0  0  0  0
   -0.9904   -9.6965   -1.2222 H   0  0  0  0  0  0  0  0  0  0  0  0
   -3.4926   -8.0111   -0.6950 H   0  0  0  0  0  0  0  0  0  0  0  0
   -1.9020   -7.3964   -1.0650 H   0  0  0  0  0  0  0  0  0  0  0  0
   -1.9698   -8.3728   -3.3142 H   0  0  0  0  0  0  0  0  0  0  0  0
   -3.3877   -7.3827   -3.0769 H   0  0  0  0  0  0  0  0  0  0  0  0
    0.3930  -12.7117   -9.4104 H   0  0  0  0  0  0  0  0  0  0  0  0
    0.5718   -9.9625   -6.0976 H   0  0  0  0  0  0  0  0  0  0  0  0
   -1.4034   -8.7809   -6.9688 H   0  0  0  0  0  0  0  0  0  0  0  0
   -2.8211   -9.4600  -10.2050 H   0  0  0  0  0  0  0  0  0  0  0  0
   -1.5908  -11.5300  -10.2970 H   0  0  0  0  0  0  0  0  0  0  0  0
    1.8202  -12.1370   -7.1618 S   0  0  0  0  0  0  0  0  0  0  0  0
    1.9392  -13.4074   -7.8669 O   0  0  0  0  0  0  0  0  0  0  0  0
    2.9184  -11.1792   -7.1296 O   0  0  0  0  0  0  0  0  0  0  0  0
    1.5680  -12.4996   -5.7284 C   0  0  0  0  0  0  0  0  0  0  0  0
    2.4572  -13.0126   -5.3613 H   0  0  0  0  0  0  0  0  0  0  0  0
    1.3888  -11.5724   -5.1847 H   0  0  0  0  0  0  0  0  0  0  0  0
    0.6945  -13.1514   -5.7073 H   0  0  0  0  0  0  0  0  0  0  0  0
  1 14  1  0  0  0  0
  1 22  2  0  0  0  0
  1 23  1  0  0  0  0
  2 18  2  0  0  0  0
  2 19  1  0  0  0  0
  2 26  1  0  0  0  0
  3  4  1  0  0  0  0
  3 16  1  0  0  0  0
  3 27  1  0  0  0  0
  3 28  1  0  0  0  0
  4  5  1  0  0  0  0
  4  9  1  0  0  0  0
  4 29  1  0  0  0  0
  5  6  1  0  0  0  0
  5 30  1  0  0  0  0
  5 31  1  0  0  0  0
  6  7  1  0  0  0  0
  6 32  1  0  0  0  0
  6 33  1  0  0  0  0
  7  8  1  0  0  0  0
  7 34  1  0  0  0  0
  7 35  1  0  0  0  0
  8  9  1  0  0  0  0
  8 36  1  0  0  0  0
  8 37  1  0  0  0  0
  9 38  1  0  0  0  0
  9 39  1  0  0  0  0
 10 11  1  0  0  0  0
 10 25  2  0  0  0  0
 10 40  1  0  0  0  0
 11 12  2  0  0  0  0
 11 45  1  0  0  0  0
 12 13  1  0  0  0  0
 12 41  1  0  0  0  0
 13 24  2  0  0  0  0
 13 42  1  0  0  0  0
 14 15  2  0  0  0  0
 15 16  1  0  0  0  0
 15 17  1  0  0  0  0
 17 18  1  0  0  0  0
 17 21  2  0  0  0  0
 19 20  1  0  0  0  0
 19 21  1  0  0  0  0
 21 22  1  0  0  0  0
 23 24  1  0  0  0  0
 23 43  1  0  0  0  0
 24 25  1  0  0  0  0
 25 44  1  0  0  0  0
 45 46  2  0  0  0  0
 45 47  2  0  0  0  0
 45 48  1  0  0  0  0
 48 49  1  0  0  0  0
 48 50  1  0  0  0  0
 48 51  1  0  0  0  0
M  END
$$$$
31
  MOE2020           3D

 50 53  0  0  0  0  0  0  0  0999 V2000
   -3.7962   -8.8862   -8.5498 C   0  0  0  0  0  0  0  0  0  0  0  0
   -7.0711   -6.1127   -7.7786 C   0  0  0  0  0  0  0  0  0  0  0  0
   -3.9889   -9.6591   -4.6074 C   0  0  0  0  0  0  0  0  0  0  0  0
   -3.8048   -9.5190   -3.0962 C   0  0  0  0  0  0  0  0  0  0  0  0
   -3.1950  -10.8231   -2.5463 C   0  0  0  0  0  0  0  0  0  0  0  0
   -2.8918  -10.7183   -1.0498 C   0  0  0  0  0  0  0  0  0  0  0  0
   -1.9608   -9.5383   -0.7487 C   0  0  0  0  0  0  0  0  0  0  0  0
   -2.5806   -8.2270   -1.2543 C   0  0  0  0  0  0  0  0  0  0  0  0
   -2.9050   -8.3078   -2.7554 C   0  0  0  0  0  0  0  0  0  0  0  0
   -0.0077  -11.8646   -8.8755 C   0  0  0  0  0  0  0  0  0  0  0  0
    0.6058  -11.4295   -7.6863 C   0  0  0  0  0  0  0  0  0  0  0  0
    0.0973  -10.3109   -7.0026 C   0  0  0  0  0  0  0  0  0  0  0  0
   -1.0335   -9.6414   -7.5049 C   0  0  0  0  0  0  0  0  0  0  0  0
   -3.9226   -9.1362   -7.2460 N   0  0  0  0  0  0  0  0  0  0  0  0
   -4.8286   -8.4749   -6.4961 C   0  0  0  0  0  0  0  0  0  0  0  0
   -4.8437   -8.6432   -5.1284 O   0  0  0  0  0  0  0  0  0  0  0  0
   -5.6786   -7.5516   -7.1414 C   0  0  0  0  0  0  0  0  0  0  0  0
   -6.6934   -6.7178   -6.6917 N   0  0  0  0  0  0  0  0  0  0  0  0
   -6.3768   -6.4545   -8.9060 N   0  0  0  0  0  0  0  0  0  0  0  0
   -6.4987   -6.1184   -9.8568 H   0  0  0  0  0  0  0  0  0  0  0  0
   -5.4824   -7.4063   -8.4980 C   0  0  0  0  0  0  0  0  0  0  0  0
   -4.5649   -8.0628   -9.2719 N   0  0  0  0  0  0  0  0  0  0  0  0
   -2.7540   -9.4455   -9.1950 N   0  0  0  0  0  0  0  0  0  0  0  0
   -1.6777  -10.0879   -8.6824 C   0  0  0  0  0  0  0  0  0  0  0  0
   -1.1378  -11.1894   -9.3779 C   0  0  0  0  0  0  0  0  0  0  0  0
   -7.8773   -5.4007   -7.7812 H   0  0  0  0  0  0  0  0  0  0  0  0
   -2.9903   -9.6332   -5.0473 H   0  0  0  0  0  0  0  0  0  0  0  0
   -4.4229  -10.6291   -4.8549 H   0  0  0  0  0  0  0  0  0  0  0  0
   -4.7829   -9.3774   -2.6323 H   0  0  0  0  0  0  0  0  0  0  0  0
   -3.8774  -11.6547   -2.7221 H   0  0  0  0  0  0  0  0  0  0  0  0
   -2.2756  -11.0609   -3.0826 H   0  0  0  0  0  0  0  0  0  0  0  0
   -3.8272  -10.5678   -0.5168 H   0  0  0  0  0  0  0  0  0  0  0  0
   -2.4583  -11.6492   -0.6813 H   0  0  0  0  0  0  0  0  0  0  0  0
   -1.7800   -9.4698    0.3247 H   0  0  0  0  0  0  0  0  0  0  0  0
   -0.9904   -9.6965   -1.2222 H   0  0  0  0  0  0  0  0  0  0  0  0
   -3.4926   -8.0111   -0.6950 H   0  0  0  0  0  0  0  0  0  0  0  0
   -1.9020   -7.3964   -1.0650 H   0  0  0  0  0  0  0  0  0  0  0  0
   -1.9698   -8.3728   -3.3142 H   0  0  0  0  0  0  0  0  0  0  0  0
   -3.3877   -7.3827   -3.0769 H   0  0  0  0  0  0  0  0  0  0  0  0
    0.3930  -12.7117   -9.4104 H   0  0  0  0  0  0  0  0  0  0  0  0
    0.5718   -9.9625   -6.0976 H   0  0  0  0  0  0  0  0  0  0  0  0
   -1.4034   -8.7809   -6.9688 H   0  0  0  0  0  0  0  0  0  0  0  0
   -2.8211   -9.4600  -10.2050 H   0  0  0  0  0  0  0  0  0  0  0  0
   -1.5908  -11.5300  -10.2970 H   0  0  0  0  0  0  0  0  0  0  0  0
    1.8202  -12.1370   -7.1618 S   0  0  0  0  0  0  0  0  0  0  0  0
    2.3156  -13.1548   -7.8005 O   0  0  0  0  0  0  0  0  0  0  0  0
    2.4558  -11.6546   -5.8912 C   0  0  0  0  0  0  0  0  0  0  0  0
    1.8847  -10.7758   -5.4991 H   0  0  0  0  0  0  0  0  0  0  0  0
    2.4435  -12.4759   -5.1325 H   0  0  0  0  0  0  0  0  0  0  0  0
    3.5132  -11.3511   -6.0955 H   0  0  0  0  0  0  0  0  0  0  0  0
  1 14  1  0  0  0  0
  1 22  2  0  0  0  0
  1 23  1  0  0  0  0
  2 18  2  0  0  0  0
  2 19  1  0  0  0  0
  2 26  1  0  0  0  0
  3  4  1  0  0  0  0
  3 16  1  0  0  0  0
  3 27  1  0  0  0  0
  3 28  1  0  0  0  0
  4  5  1  0  0  0  0
  4  9  1  0  0  0  0
  4 29  1  0  0  0  0
  5  6  1  0  0  0  0
  5 30  1  0  0  0  0
  5 31  1  0  0  0  0
  6  7  1  0  0  0  0
  6 32  1  0  0  0  0
  6 33  1  0  0  0  0
  7  8  1  0  0  0  0
  7 34  1  0  0  0  0
  7 35  1  0  0  0  0
  8  9  1  0  0  0  0
  8 36  1  0  0  0  0
  8 37  1  0  0  0  0
  9 38  1  0  0  0  0
  9 39  1  0  0  0  0
 10 11  1  0  0  0  0
 10 25  2  0  0  0  0
 10 40  1  0  0  0  0
 11 12  2  0  0  0  0
 11 45  1  0  0  0  0
 12 13  1  0  0  0  0
 12 41  1  0  0  0  0
 13 24  2  0  0  0  0
 13 42  1  0  0  0  0
 14 15  2  0  0  0  0
 15 16  1  0  0  0  0
 15 17  1  0  0  0  0
 17 18  1  0  0  0  0
 17 21  2  0  0  0  0
 19 20  1  0  0  0  0
 19 21  1  0  0  0  0
 21 22  1  0  0  0  0
 23 24  1  0  0  0  0
 23 43  1  0  0  0  0
 24 25  1  0  0  0  0
 25 44  1  0  0  0  0
 45 46  2  0  0  0  0
 45 47  1  0  0  0  0
 47 48  1  0  0  0  0
 47 49  1  0  0  0  0
 47 50  1  0  0  0  0
M  END
$$$$
32
  MOE2020           3D

 54 57  0  0  0  0  0  0  0  0999 V2000
   -3.7962   -8.8862   -8.5498 C   0  0  0  0  0  0  0  0  0  0  0  0
   -7.0711   -6.1127   -7.7786 C   0  0  0  0  0  0  0  0  0  0  0  0
   -3.9889   -9.6591   -4.6074 C   0  0  0  0  0  0  0  0  0  0  0  0
   -3.8048   -9.5190   -3.0962 C   0  0  0  0  0  0  0  0  0  0  0  0
   -3.1950  -10.8231   -2.5463 C   0  0  0  0  0  0  0  0  0  0  0  0
   -2.8918  -10.7183   -1.0498 C   0  0  0  0  0  0  0  0  0  0  0  0
   -1.9608   -9.5383   -0.7487 C   0  0  0  0  0  0  0  0  0  0  0  0
   -2.5806   -8.2270   -1.2543 C   0  0  0  0  0  0  0  0  0  0  0  0
   -2.9050   -8.3078   -2.7554 C   0  0  0  0  0  0  0  0  0  0  0  0
   -0.0077  -11.8646   -8.8755 C   0  0  0  0  0  0  0  0  0  0  0  0
    0.6058  -11.4295   -7.6863 C   0  0  0  0  0  0  0  0  0  0  0  0
    0.0973  -10.3109   -7.0026 C   0  0  0  0  0  0  0  0  0  0  0  0
   -1.0335   -9.6414   -7.5049 C   0  0  0  0  0  0  0  0  0  0  0  0
   -3.9226   -9.1362   -7.2460 N   0  0  0  0  0  0  0  0  0  0  0  0
   -4.8286   -8.4749   -6.4961 C   0  0  0  0  0  0  0  0  0  0  0  0
   -4.8437   -8.6432   -5.1284 O   0  0  0  0  0  0  0  0  0  0  0  0
   -5.6786   -7.5516   -7.1414 C   0  0  0  0  0  0  0  0  0  0  0  0
   -6.6934   -6.7178   -6.6917 N   0  0  0  0  0  0  0  0  0  0  0  0
   -6.3768   -6.4545   -8.9060 N   0  0  0  0  0  0  0  0  0  0  0  0
   -6.4987   -6.1184   -9.8568 H   0  0  0  0  0  0  0  0  0  0  0  0
   -5.4824   -7.4063   -8.4980 C   0  0  0  0  0  0  0  0  0  0  0  0
   -4.5649   -8.0628   -9.2719 N   0  0  0  0  0  0  0  0  0  0  0  0
   -2.7540   -9.4455   -9.1950 N   0  0  0  0  0  0  0  0  0  0  0  0
   -1.6777  -10.0879   -8.6824 C   0  0  0  0  0  0  0  0  0  0  0  0
   -1.1378  -11.1894   -9.3779 C   0  0  0  0  0  0  0  0  0  0  0  0
   -7.8773   -5.4007   -7.7812 H   0  0  0  0  0  0  0  0  0  0  0  0
   -2.9903   -9.6332   -5.0473 H   0  0  0  0  0  0  0  0  0  0  0  0
   -4.4229  -10.6291   -4.8549 H   0  0  0  0  0  0  0  0  0  0  0  0
   -4.7829   -9.3774   -2.6323 H   0  0  0  0  0  0  0  0  0  0  0  0
   -3.8774  -11.6547   -2.7221 H   0  0  0  0  0  0  0  0  0  0  0  0
   -2.2756  -11.0609   -3.0826 H   0  0  0  0  0  0  0  0  0  0  0  0
   -3.8272  -10.5678   -0.5168 H   0  0  0  0  0  0  0  0  0  0  0  0
   -2.4583  -11.6492   -0.6813 H   0  0  0  0  0  0  0  0  0  0  0  0
   -1.7800   -9.4698    0.3247 H   0  0  0  0  0  0  0  0  0  0  0  0
   -0.9904   -9.6965   -1.2222 H   0  0  0  0  0  0  0  0  0  0  0  0
   -3.4926   -8.0111   -0.6950 H   0  0  0  0  0  0  0  0  0  0  0  0
   -1.9020   -7.3964   -1.0650 H   0  0  0  0  0  0  0  0  0  0  0  0
   -1.9698   -8.3728   -3.3142 H   0  0  0  0  0  0  0  0  0  0  0  0
   -3.3877   -7.3827   -3.0769 H   0  0  0  0  0  0  0  0  0  0  0  0
    0.3930  -12.7117   -9.4104 H   0  0  0  0  0  0  0  0  0  0  0  0
   -1.4034   -8.7809   -6.9688 H   0  0  0  0  0  0  0  0  0  0  0  0
   -2.8211   -9.4600  -10.2050 H   0  0  0  0  0  0  0  0  0  0  0  0
   -1.5908  -11.5300  -10.2970 H   0  0  0  0  0  0  0  0  0  0  0  0
    1.8202  -12.1370   -7.1618 S   0  0  0  0  0  0  0  0  0  0  0  0
    1.9392  -13.4074   -7.8669 O   0  0  0  0  0  0  0  0  0  0  0  0
    2.9184  -11.1792   -7.1296 O   0  0  0  0  0  0  0  0  0  0  0  0
    1.5305  -12.5544   -5.5145 N   0  0  0  0  0  0  0  0  0  0  0  0
    1.3957  -11.8138   -4.8424 H   0  0  0  0  0  0  0  0  0  0  0  0
    1.6087  -13.5221   -5.2371 H   0  0  0  0  0  0  0  0  0  0  0  0
    0.6971   -9.8707   -5.8598 O   0  0  0  0  0  0  0  0  0  0  0  0
    0.0125   -8.7439   -5.3584 C   0  0  0  0  0  0  0  0  0  0  0  0
    0.5120   -8.3907   -4.4225 H   0  0  0  0  0  0  0  0  0  0  0  0
    0.0311   -7.9265   -6.1226 H   0  0  0  0  0  0  0  0  0  0  0  0
   -1.0478   -9.0213   -5.1340 H   0  0  0  0  0  0  0  0  0  0  0  0
  1 14  1  0  0  0  0
  1 22  2  0  0  0  0
  1 23  1  0  0  0  0
  2 18  2  0  0  0  0
  2 19  1  0  0  0  0
  2 26  1  0  0  0  0
  3  4  1  0  0  0  0
  3 16  1  0  0  0  0
  3 27  1  0  0  0  0
  3 28  1  0  0  0  0
  4  5  1  0  0  0  0
  4  9  1  0  0  0  0
  4 29  1  0  0  0  0
  5  6  1  0  0  0  0
  5 30  1  0  0  0  0
  5 31  1  0  0  0  0
  6  7  1  0  0  0  0
  6 32  1  0  0  0  0
  6 33  1  0  0  0  0
  7  8  1  0  0  0  0
  7 34  1  0  0  0  0
  7 35  1  0  0  0  0
  8  9  1  0  0  0  0
  8 36  1  0  0  0  0
  8 37  1  0  0  0  0
  9 38  1  0  0  0  0
  9 39  1  0  0  0  0
 10 11  1  0  0  0  0
 10 25  2  0  0  0  0
 10 40  1  0  0  0  0
 11 12  2  0  0  0  0
 11 44  1  0  0  0  0
 12 13  1  0  0  0  0
 12 50  1  0  0  0  0
 13 24  2  0  0  0  0
 13 41  1  0  0  0  0
 14 15  2  0  0  0  0
 15 16  1  0  0  0  0
 15 17  1  0  0  0  0
 17 18  1  0  0  0  0
 17 21  2  0  0  0  0
 19 20  1  0  0  0  0
 19 21  1  0  0  0  0
 21 22  1  0  0  0  0
 23 24  1  0  0  0  0
 23 42  1  0  0  0  0
 24 25  1  0  0  0  0
 25 43  1  0  0  0  0
 44 45  2  0  0  0  0
 44 46  2  0  0  0  0
 44 47  1  0  0  0  0
 47 48  1  0  0  0  0
 47 49  1  0  0  0  0
 50 51  1  0  0  0  0
 51 52  1  0  0  0  0
 51 53  1  0  0  0  0
 51 54  1  0  0  0  0
M  END
$$$$