1h1q
  MOE2020           3D

 45 48  0  0  0  0  0  0  0  0999 V2000
   13.5870  -33.9844   -0.3262 C   0  0  0  0  0  0  0  0  0  0  0  0
   10.3122  -31.2108    0.4450 C   0  0  0  0  0  0  0  0  0  0  0  0
   13.3943  -34.7573    3.6162 C   0  0  0  0  0  0  0  0  0  0  0  0
   13.5785  -34.6172    5.1274 C   0  0  0  0  0  0  0  0  0  0  0  0
   14.1883  -35.9212    5.6774 C   0  0  0  0  0  0  0  0  0  0  0  0
   14.4914  -35.8165    7.1739 C   0  0  0  0  0  0  0  0  0  0  0  0
   15.4225  -34.6365    7.4750 C   0  0  0  0  0  0  0  0  0  0  0  0
   14.8026  -33.3251    6.9693 C   0  0  0  0  0  0  0  0  0  0  0  0
   14.4782  -33.4059    5.4683 C   0  0  0  0  0  0  0  0  0  0  0  0
   17.3755  -36.9628   -0.6519 C   0  0  0  0  0  0  0  0  0  0  0  0
   17.9890  -36.5277    0.5374 C   0  0  0  0  0  0  0  0  0  0  0  0
   17.4805  -35.4091    1.2210 C   0  0  0  0  0  0  0  0  0  0  0  0
   16.3497  -34.7395    0.7187 C   0  0  0  0  0  0  0  0  0  0  0  0
   13.4606  -34.2344    0.9776 N   0  0  0  0  0  0  0  0  0  0  0  0
   12.5546  -33.5730    1.7275 C   0  0  0  0  0  0  0  0  0  0  0  0
   12.5395  -33.7414    3.0952 O   0  0  0  0  0  0  0  0  0  0  0  0
   11.7047  -32.6498    1.0822 C   0  0  0  0  0  0  0  0  0  0  0  0
   10.6899  -31.8160    1.5319 N   0  0  0  0  0  0  0  0  0  0  0  0
   11.0065  -31.5526   -0.6824 N   0  0  0  0  0  0  0  0  0  0  0  0
   10.8846  -31.2165   -1.6331 H   0  0  0  0  0  0  0  0  0  0  0  0
   11.9009  -32.5044   -0.2743 C   0  0  0  0  0  0  0  0  0  0  0  0
   12.8183  -33.1610   -1.0483 N   0  0  0  0  0  0  0  0  0  0  0  0
   14.6292  -34.5437   -0.9714 N   0  0  0  0  0  0  0  0  0  0  0  0
   15.7056  -35.1861   -0.4588 C   0  0  0  0  0  0  0  0  0  0  0  0
   16.2454  -36.2876   -1.1543 C   0  0  0  0  0  0  0  0  0  0  0  0
    9.5059  -30.4989    0.4425 H   0  0  0  0  0  0  0  0  0  0  0  0
   14.3929  -34.7314    3.1763 H   0  0  0  0  0  0  0  0  0  0  0  0
   12.9603  -35.7273    3.3687 H   0  0  0  0  0  0  0  0  0  0  0  0
   12.6003  -34.4756    5.5914 H   0  0  0  0  0  0  0  0  0  0  0  0
   13.5058  -36.7528    5.5016 H   0  0  0  0  0  0  0  0  0  0  0  0
   15.1076  -36.1591    5.1410 H   0  0  0  0  0  0  0  0  0  0  0  0
   13.5560  -35.6660    7.7069 H   0  0  0  0  0  0  0  0  0  0  0  0
   14.9250  -36.7473    7.5423 H   0  0  0  0  0  0  0  0  0  0  0  0
   15.6032  -34.5679    8.5483 H   0  0  0  0  0  0  0  0  0  0  0  0
   16.3928  -34.7946    7.0014 H   0  0  0  0  0  0  0  0  0  0  0  0
   13.8906  -33.1093    7.5287 H   0  0  0  0  0  0  0  0  0  0  0  0
   15.4812  -32.4946    7.1586 H   0  0  0  0  0  0  0  0  0  0  0  0
   15.4134  -33.4709    4.9094 H   0  0  0  0  0  0  0  0  0  0  0  0
   13.9956  -32.4809    5.1467 H   0  0  0  0  0  0  0  0  0  0  0  0
   17.7762  -37.8099   -1.1868 H   0  0  0  0  0  0  0  0  0  0  0  0
   18.8620  -37.0368    0.9147 H   0  0  0  0  0  0  0  0  0  0  0  0
   17.9550  -35.0606    2.1260 H   0  0  0  0  0  0  0  0  0  0  0  0
   15.9798  -33.8791    1.2548 H   0  0  0  0  0  0  0  0  0  0  0  0
   14.5622  -34.5581   -1.9814 H   0  0  0  0  0  0  0  0  0  0  0  0
   15.7924  -36.6282   -2.0734 H   0  0  0  0  0  0  0  0  0  0  0  0
  1 14  1  0  0  0  0
  1 22  2  0  0  0  0
  1 23  1  0  0  0  0
  2 18  2  0  0  0  0
  2 19  1  0  0  0  0
  2 26  1  0  0  0  0
  3  4  1  0  0  0  0
  3 16  1  0  0  0  0
  3 27  1  0  0  0  0
  3 28  1  0  0  0  0
  4  5  1  0  0  0  0
  4  9  1  0  0  0  0
  4 29  1  0  0  0  0
  5  6  1  0  0  0  0
  5 30  1  0  0  0  0
  5 31  1  0  0  0  0
  6  7  1  0  0  0  0
  6 32  1  0  0  0  0
  6 33  1  0  0  0  0
  7  8  1  0  0  0  0
  7 34  1  0  0  0  0
  7 35  1  0  0  0  0
  8  9  1  0  0  0  0
  8 36  1  0  0  0  0
  8 37  1  0  0  0  0
  9 38  1  0  0  0  0
  9 39  1  0  0  0  0
 10 11  1  0  0  0  0
 10 25  2  0  0  0  0
 10 40  1  0  0  0  0
 11 12  2  0  0  0  0
 11 41  1  0  0  0  0
 12 13  1  0  0  0  0
 12 42  1  0  0  0  0
 13 24  2  0  0  0  0
 13 43  1  0  0  0  0
 14 15  2  0  0  0  0
 15 16  1  0  0  0  0
 15 17  1  0  0  0  0
 17 18  1  0  0  0  0
 17 21  2  0  0  0  0
 19 20  1  0  0  0  0
 19 21  1  0  0  0  0
 21 22  1  0  0  0  0
 23 24  1  0  0  0  0
 23 44  1  0  0  0  0
 24 25  1  0  0  0  0
 25 45  1  0  0  0  0
M  END
$$$$
1h1r
  MOE2020           3D

 45 48  0  0  0  0  0  0  0  0999 V2000
   13.5870  -33.9844   -0.3262 C   0  0  0  0  0  0  0  0  0  0  0  0
   10.3122  -31.2108    0.4450 C   0  0  0  0  0  0  0  0  0  0  0  0
   13.3943  -34.7573    3.6162 C   0  0  0  0  0  0  0  0  0  0  0  0
   13.5785  -34.6172    5.1274 C   0  0  0  0  0  0  0  0  0  0  0  0
   14.1883  -35.9212    5.6774 C   0  0  0  0  0  0  0  0  0  0  0  0
   14.4914  -35.8165    7.1739 C   0  0  0  0  0  0  0  0  0  0  0  0
   15.4225  -34.6365    7.4750 C   0  0  0  0  0  0  0  0  0  0  0  0
   14.8026  -33.3251    6.9693 C   0  0  0  0  0  0  0  0  0  0  0  0
   14.4782  -33.4059    5.4683 C   0  0  0  0  0  0  0  0  0  0  0  0
   17.3755  -36.9628   -0.6519 C   0  0  0  0  0  0  0  0  0  0  0  0
   17.9890  -36.5277    0.5374 C   0  0  0  0  0  0  0  0  0  0  0  0
   17.4805  -35.4091    1.2210 C   0  0  0  0  0  0  0  0  0  0  0  0
   16.3497  -34.7395    0.7187 C   0  0  0  0  0  0  0  0  0  0  0  0
   13.4606  -34.2344    0.9776 N   0  0  0  0  0  0  0  0  0  0  0  0
   12.5546  -33.5730    1.7275 C   0  0  0  0  0  0  0  0  0  0  0  0
   12.5395  -33.7414    3.0952 O   0  0  0  0  0  0  0  0  0  0  0  0
   11.7047  -32.6498    1.0822 C   0  0  0  0  0  0  0  0  0  0  0  0
   10.6899  -31.8160    1.5319 N   0  0  0  0  0  0  0  0  0  0  0  0
   11.0065  -31.5526   -0.6824 N   0  0  0  0  0  0  0  0  0  0  0  0
   10.8846  -31.2165   -1.6331 H   0  0  0  0  0  0  0  0  0  0  0  0
   11.9009  -32.5044   -0.2743 C   0  0  0  0  0  0  0  0  0  0  0  0
   12.8183  -33.1610   -1.0483 N   0  0  0  0  0  0  0  0  0  0  0  0
   14.6292  -34.5437   -0.9714 N   0  0  0  0  0  0  0  0  0  0  0  0
   15.7056  -35.1861   -0.4588 C   0  0  0  0  0  0  0  0  0  0  0  0
   16.2454  -36.2876   -1.1543 C   0  0  0  0  0  0  0  0  0  0  0  0
    9.5059  -30.4989    0.4425 H   0  0  0  0  0  0  0  0  0  0  0  0
   14.3929  -34.7314    3.1763 H   0  0  0  0  0  0  0  0  0  0  0  0
   12.9603  -35.7273    3.3687 H   0  0  0  0  0  0  0  0  0  0  0  0
   12.6003  -34.4756    5.5914 H   0  0  0  0  0  0  0  0  0  0  0  0
   13.5058  -36.7528    5.5016 H   0  0  0  0  0  0  0  0  0  0  0  0
   15.1076  -36.1591    5.1410 H   0  0  0  0  0  0  0  0  0  0  0  0
   13.5560  -35.6660    7.7069 H   0  0  0  0  0  0  0  0  0  0  0  0
   14.9250  -36.7473    7.5423 H   0  0  0  0  0  0  0  0  0  0  0  0
   15.6032  -34.5679    8.5483 H   0  0  0  0  0  0  0  0  0  0  0  0
   16.3928  -34.7946    7.0014 H   0  0  0  0  0  0  0  0  0  0  0  0
   13.8906  -33.1093    7.5287 H   0  0  0  0  0  0  0  0  0  0  0  0
   15.4812  -32.4946    7.1586 H   0  0  0  0  0  0  0  0  0  0  0  0
   15.4134  -33.4709    4.9094 H   0  0  0  0  0  0  0  0  0  0  0  0
   13.9956  -32.4809    5.1467 H   0  0  0  0  0  0  0  0  0  0  0  0
   17.7762  -37.8099   -1.1868 H   0  0  0  0  0  0  0  0  0  0  0  0
   18.8620  -37.0368    0.9147 H   0  0  0  0  0  0  0  0  0  0  0  0
   15.9798  -33.8791    1.2548 H   0  0  0  0  0  0  0  0  0  0  0  0
   14.5622  -34.5581   -1.9814 H   0  0  0  0  0  0  0  0  0  0  0  0
   15.7924  -36.6282   -2.0734 H   0  0  0  0  0  0  0  0  0  0  0  0
   18.2416  -34.8513    2.6706 Cl  0  0  0  0  0  0  0  0  0  0  0  0
  1 14  1  0  0  0  0
  1 22  2  0  0  0  0
  1 23  1  0  0  0  0
  2 18  2  0  0  0  0
  2 19  1  0  0  0  0
  2 26  1  0  0  0  0
  3  4  1  0  0  0  0
  3 16  1  0  0  0  0
  3 27  1  0  0  0  0
  3 28  1  0  0  0  0
  4  5  1  0  0  0  0
  4  9  1  0  0  0  0
  4 29  1  0  0  0  0
  5  6  1  0  0  0  0
  5 30  1  0  0  0  0
  5 31  1  0  0  0  0
  6  7  1  0  0  0  0
  6 32  1  0  0  0  0
  6 33  1  0  0  0  0
  7  8  1  0  0  0  0
  7 34  1  0  0  0  0
  7 35  1  0  0  0  0
  8  9  1  0  0  0  0
  8 36  1  0  0  0  0
  8 37  1  0  0  0  0
  9 38  1  0  0  0  0
  9 39  1  0  0  0  0
 10 11  1  0  0  0  0
 10 25  2  0  0  0  0
 10 40  1  0  0  0  0
 11 12  2  0  0  0  0
 11 41  1  0  0  0  0
 12 13  1  0  0  0  0
 12 45  1  0  0  0  0
 13 24  2  0  0  0  0
 13 42  1  0  0  0  0
 14 15  2  0  0  0  0
 15 16  1  0  0  0  0
 15 17  1  0  0  0  0
 17 18  1  0  0  0  0
 17 21  2  0  0  0  0
 19 20  1  0  0  0  0
 19 21  1  0  0  0  0
 21 22  1  0  0  0  0
 23 24  1  0  0  0  0
 23 43  1  0  0  0  0
 24 25  1  0  0  0  0
 25 44  1  0  0  0  0
M  END
$$$$
1h1s
  MOE2020           3D

 50 53  0  0  0  0  0  0  0  0999 V2000
   13.5870  -33.9844   -0.3262 C   0  0  0  0  0  0  0  0  0  0  0  0
   10.3122  -31.2108    0.4450 C   0  0  0  0  0  0  0  0  0  0  0  0
   13.3943  -34.7573    3.6162 C   0  0  0  0  0  0  0  0  0  0  0  0
   13.5785  -34.6172    5.1274 C   0  0  0  0  0  0  0  0  0  0  0  0
   14.1883  -35.9212    5.6774 C   0  0  0  0  0  0  0  0  0  0  0  0
   14.4914  -35.8165    7.1739 C   0  0  0  0  0  0  0  0  0  0  0  0
   15.4225  -34.6365    7.4750 C   0  0  0  0  0  0  0  0  0  0  0  0
   14.8026  -33.3251    6.9693 C   0  0  0  0  0  0  0  0  0  0  0  0
   14.4782  -33.4059    5.4683 C   0  0  0  0  0  0  0  0  0  0  0  0
   17.3755  -36.9628   -0.6519 C   0  0  0  0  0  0  0  0  0  0  0  0
   17.9890  -36.5277    0.5374 C   0  0  0  0  0  0  0  0  0  0  0  0
   17.4805  -35.4091    1.2210 C   0  0  0  0  0  0  0  0  0  0  0  0
   16.3497  -34.7395    0.7187 C   0  0  0  0  0  0  0  0  0  0  0  0
   13.4606  -34.2344    0.9776 N   0  0  0  0  0  0  0  0  0  0  0  0
   12.5546  -33.5730    1.7275 C   0  0  0  0  0  0  0  0  0  0  0  0
   12.5395  -33.7414    3.0952 O   0  0  0  0  0  0  0  0  0  0  0  0
   11.7047  -32.6498    1.0822 C   0  0  0  0  0  0  0  0  0  0  0  0
   10.6899  -31.8160    1.5319 N   0  0  0  0  0  0  0  0  0  0  0  0
   11.0065  -31.5526   -0.6824 N   0  0  0  0  0  0  0  0  0  0  0  0
   10.8846  -31.2165   -1.6331 H   0  0  0  0  0  0  0  0  0  0  0  0
   11.9009  -32.5044   -0.2743 C   0  0  0  0  0  0  0  0  0  0  0  0
   12.8183  -33.1610   -1.0483 N   0  0  0  0  0  0  0  0  0  0  0  0
   14.6292  -34.5437   -0.9714 N   0  0  0  0  0  0  0  0  0  0  0  0
   15.7056  -35.1861   -0.4588 C   0  0  0  0  0  0  0  0  0  0  0  0
   16.2454  -36.2876   -1.1543 C   0  0  0  0  0  0  0  0  0  0  0  0
    9.5059  -30.4989    0.4425 H   0  0  0  0  0  0  0  0  0  0  0  0
   14.3929  -34.7314    3.1763 H   0  0  0  0  0  0  0  0  0  0  0  0
   12.9603  -35.7273    3.3687 H   0  0  0  0  0  0  0  0  0  0  0  0
   12.6003  -34.4756    5.5914 H   0  0  0  0  0  0  0  0  0  0  0  0
   13.5058  -36.7528    5.5016 H   0  0  0  0  0  0  0  0  0  0  0  0
   15.1076  -36.1591    5.1410 H   0  0  0  0  0  0  0  0  0  0  0  0
   13.5560  -35.6660    7.7069 H   0  0  0  0  0  0  0  0  0  0  0  0
   14.9250  -36.7473    7.5423 H   0  0  0  0  0  0  0  0  0  0  0  0
   15.6032  -34.5679    8.5483 H   0  0  0  0  0  0  0  0  0  0  0  0
   16.3928  -34.7946    7.0014 H   0  0  0  0  0  0  0  0  0  0  0  0
   13.8906  -33.1093    7.5287 H   0  0  0  0  0  0  0  0  0  0  0  0
   15.4812  -32.4946    7.1586 H   0  0  0  0  0  0  0  0  0  0  0  0
   15.4134  -33.4709    4.9094 H   0  0  0  0  0  0  0  0  0  0  0  0
   13.9956  -32.4809    5.1467 H   0  0  0  0  0  0  0  0  0  0  0  0
   17.7762  -37.8099   -1.1868 H   0  0  0  0  0  0  0  0  0  0  0  0
   17.9550  -35.0606    2.1260 H   0  0  0  0  0  0  0  0  0  0  0  0
   15.9798  -33.8791    1.2548 H   0  0  0  0  0  0  0  0  0  0  0  0
   14.5622  -34.5581   -1.9814 H   0  0  0  0  0  0  0  0  0  0  0  0
   15.7924  -36.6282   -2.0734 H   0  0  0  0  0  0  0  0  0  0  0  0
   19.2035  -37.2352    1.0618 S   0  0  0  0  0  0  0  0  0  0  0  0
   19.3224  -38.5055    0.3567 O   0  0  0  0  0  0  0  0  0  0  0  0
   20.3017  -36.2773    1.0941 O   0  0  0  0  0  0  0  0  0  0  0  0
   18.9137  -37.6525    2.7091 N   0  0  0  0  0  0  0  0  0  0  0  0
   19.5588  -37.3275    3.4142 H   0  0  0  0  0  0  0  0  0  0  0  0
   18.1687  -38.2994    2.9231 H   0  0  0  0  0  0  0  0  0  0  0  0
  1 14  1  0  0  0  0
  1 22  2  0  0  0  0
  1 23  1  0  0  0  0
  2 18  2  0  0  0  0
  2 19  1  0  0  0  0
  2 26  1  0  0  0  0
  3  4  1  0  0  0  0
  3 16  1  0  0  0  0
  3 27  1  0  0  0  0
  3 28  1  0  0  0  0
  4  5  1  0  0  0  0
  4  9  1  0  0  0  0
  4 29  1  0  0  0  0
  5  6  1  0  0  0  0
  5 30  1  0  0  0  0
  5 31  1  0  0  0  0
  6  7  1  0  0  0  0
  6 32  1  0  0  0  0
  6 33  1  0  0  0  0
  7  8  1  0  0  0  0
  7 34  1  0  0  0  0
  7 35  1  0  0  0  0
  8  9  1  0  0  0  0
  8 36  1  0  0  0  0
  8 37  1  0  0  0  0
  9 38  1  0  0  0  0
  9 39  1  0  0  0  0
 10 11  1  0  0  0  0
 10 25  2  0  0  0  0
 10 40  1  0  0  0  0
 11 12  2  0  0  0  0
 11 45  1  0  0  0  0
 12 13  1  0  0  0  0
 12 41  1  0  0  0  0
 13 24  2  0  0  0  0
 13 42  1  0  0  0  0
 14 15  2  0  0  0  0
 15 16  1  0  0  0  0
 15 17  1  0  0  0  0
 17 18  1  0  0  0  0
 17 21  2  0  0  0  0
 19 20  1  0  0  0  0
 19 21  1  0  0  0  0
 21 22  1  0  0  0  0
 23 24  1  0  0  0  0
 23 43  1  0  0  0  0
 24 25  1  0  0  0  0
 25 44  1  0  0  0  0
 45 46  2  0  0  0  0
 45 47  2  0  0  0  0
 45 48  1  0  0  0  0
 48 49  1  0  0  0  0
 48 50  1  0  0  0  0
M  END
$$$$
1oi9
  MOE2020           3D

 46 49  0  0  0  0  0  0  0  0999 V2000
   13.5870  -33.9844   -0.3262 C   0  0  0  0  0  0  0  0  0  0  0  0
   10.3122  -31.2108    0.4450 C   0  0  0  0  0  0  0  0  0  0  0  0
   13.3943  -34.7573    3.6162 C   0  0  0  0  0  0  0  0  0  0  0  0
   13.5785  -34.6172    5.1274 C   0  0  0  0  0  0  0  0  0  0  0  0
   14.1883  -35.9212    5.6774 C   0  0  0  0  0  0  0  0  0  0  0  0
   14.4914  -35.8165    7.1739 C   0  0  0  0  0  0  0  0  0  0  0  0
   15.4225  -34.6365    7.4750 C   0  0  0  0  0  0  0  0  0  0  0  0
   14.8026  -33.3251    6.9693 C   0  0  0  0  0  0  0  0  0  0  0  0
   14.4782  -33.4059    5.4683 C   0  0  0  0  0  0  0  0  0  0  0  0
   17.3755  -36.9628   -0.6519 C   0  0  0  0  0  0  0  0  0  0  0  0
   17.9890  -36.5277    0.5374 C   0  0  0  0  0  0  0  0  0  0  0  0
   17.4805  -35.4091    1.2210 C   0  0  0  0  0  0  0  0  0  0  0  0
   16.3497  -34.7395    0.7187 C   0  0  0  0  0  0  0  0  0  0  0  0
   13.4606  -34.2344    0.9776 N   0  0  0  0  0  0  0  0  0  0  0  0
   12.5546  -33.5730    1.7275 C   0  0  0  0  0  0  0  0  0  0  0  0
   12.5395  -33.7414    3.0952 O   0  0  0  0  0  0  0  0  0  0  0  0
   11.7047  -32.6498    1.0822 C   0  0  0  0  0  0  0  0  0  0  0  0
   10.6899  -31.8160    1.5319 N   0  0  0  0  0  0  0  0  0  0  0  0
   11.0065  -31.5526   -0.6824 N   0  0  0  0  0  0  0  0  0  0  0  0
   10.8846  -31.2165   -1.6331 H   0  0  0  0  0  0  0  0  0  0  0  0
   11.9009  -32.5044   -0.2743 C   0  0  0  0  0  0  0  0  0  0  0  0
   12.8183  -33.1610   -1.0483 N   0  0  0  0  0  0  0  0  0  0  0  0
   14.6292  -34.5437   -0.9714 N   0  0  0  0  0  0  0  0  0  0  0  0
   15.7056  -35.1861   -0.4588 C   0  0  0  0  0  0  0  0  0  0  0  0
   16.2454  -36.2876   -1.1543 C   0  0  0  0  0  0  0  0  0  0  0  0
    9.5059  -30.4989    0.4425 H   0  0  0  0  0  0  0  0  0  0  0  0
   14.3929  -34.7314    3.1763 H   0  0  0  0  0  0  0  0  0  0  0  0
   12.9603  -35.7273    3.3687 H   0  0  0  0  0  0  0  0  0  0  0  0
   12.6003  -34.4756    5.5914 H   0  0  0  0  0  0  0  0  0  0  0  0
   13.5058  -36.7528    5.5016 H   0  0  0  0  0  0  0  0  0  0  0  0
   15.1076  -36.1591    5.1410 H   0  0  0  0  0  0  0  0  0  0  0  0
   13.5560  -35.6660    7.7069 H   0  0  0  0  0  0  0  0  0  0  0  0
   14.9250  -36.7473    7.5423 H   0  0  0  0  0  0  0  0  0  0  0  0
   15.6032  -34.5679    8.5483 H   0  0  0  0  0  0  0  0  0  0  0  0
   16.3928  -34.7946    7.0014 H   0  0  0  0  0  0  0  0  0  0  0  0
   13.8906  -33.1093    7.5287 H   0  0  0  0  0  0  0  0  0  0  0  0
   15.4812  -32.4946    7.1586 H   0  0  0  0  0  0  0  0  0  0  0  0
   15.4134  -33.4709    4.9094 H   0  0  0  0  0  0  0  0  0  0  0  0
   13.9956  -32.4809    5.1467 H   0  0  0  0  0  0  0  0  0  0  0  0
   17.7762  -37.8099   -1.1868 H   0  0  0  0  0  0  0  0  0  0  0  0
   17.9550  -35.0606    2.1260 H   0  0  0  0  0  0  0  0  0  0  0  0
   15.9798  -33.8791    1.2548 H   0  0  0  0  0  0  0  0  0  0  0  0
   14.5622  -34.5581   -1.9814 H   0  0  0  0  0  0  0  0  0  0  0  0
   15.7924  -36.6282   -2.0734 H   0  0  0  0  0  0  0  0  0  0  0  0
   19.0938  -37.1712    1.0144 O   0  0  0  0  0  0  0  0  0  0  0  0
   19.3844  -36.7628    1.8152 H   0  0  0  0  0  0  0  0  0  0  0  0
  1 14  1  0  0  0  0
  1 22  2  0  0  0  0
  1 23  1  0  0  0  0
  2 18  2  0  0  0  0
  2 19  1  0  0  0  0
  2 26  1  0  0  0  0
  3  4  1  0  0  0  0
  3 16  1  0  0  0  0
  3 27  1  0  0  0  0
  3 28  1  0  0  0  0
  4  5  1  0  0  0  0
  4  9  1  0  0  0  0
  4 29  1  0  0  0  0
  5  6  1  0  0  0  0
  5 30  1  0  0  0  0
  5 31  1  0  0  0  0
  6  7  1  0  0  0  0
  6 32  1  0  0  0  0
  6 33  1  0  0  0  0
  7  8  1  0  0  0  0
  7 34  1  0  0  0  0
  7 35  1  0  0  0  0
  8  9  1  0  0  0  0
  8 36  1  0  0  0  0
  8 37  1  0  0  0  0
  9 38  1  0  0  0  0
  9 39  1  0  0  0  0
 10 11  1  0  0  0  0
 10 25  2  0  0  0  0
 10 40  1  0  0  0  0
 11 12  2  0  0  0  0
 11 45  1  0  0  0  0
 12 13  1  0  0  0  0
 12 41  1  0  0  0  0
 13 24  2  0  0  0  0
 13 42  1  0  0  0  0
 14 15  2  0  0  0  0
 15 16  1  0  0  0  0
 15 17  1  0  0  0  0
 17 18  1  0  0  0  0
 17 21  2  0  0  0  0
 19 20  1  0  0  0  0
 19 21  1  0  0  0  0
 21 22  1  0  0  0  0
 23 24  1  0  0  0  0
 23 43  1  0  0  0  0
 24 25  1  0  0  0  0
 25 44  1  0  0  0  0
 45 46  1  0  0  0  0
M  END
$$$$
1oiu
  MOE2020           3D

 50 53  0  0  0  0  0  0  0  0999 V2000
   13.5870  -33.9844   -0.3262 C   0  0  0  0  0  0  0  0  0  0  0  0
   10.3122  -31.2108    0.4450 C   0  0  0  0  0  0  0  0  0  0  0  0
   13.3943  -34.7573    3.6162 C   0  0  0  0  0  0  0  0  0  0  0  0
   13.5785  -34.6172    5.1274 C   0  0  0  0  0  0  0  0  0  0  0  0
   14.1883  -35.9212    5.6774 C   0  0  0  0  0  0  0  0  0  0  0  0
   14.4914  -35.8165    7.1739 C   0  0  0  0  0  0  0  0  0  0  0  0
   15.4225  -34.6365    7.4750 C   0  0  0  0  0  0  0  0  0  0  0  0
   14.8026  -33.3251    6.9693 C   0  0  0  0  0  0  0  0  0  0  0  0
   14.4782  -33.4059    5.4683 C   0  0  0  0  0  0  0  0  0  0  0  0
   17.3755  -36.9628   -0.6519 C   0  0  0  0  0  0  0  0  0  0  0  0
   17.9890  -36.5277    0.5374 C   0  0  0  0  0  0  0  0  0  0  0  0
   17.4805  -35.4091    1.2210 C   0  0  0  0  0  0  0  0  0  0  0  0
   16.3497  -34.7395    0.7187 C   0  0  0  0  0  0  0  0  0  0  0  0
   13.4606  -34.2344    0.9776 N   0  0  0  0  0  0  0  0  0  0  0  0
   12.5546  -33.5730    1.7275 C   0  0  0  0  0  0  0  0  0  0  0  0
   12.5395  -33.7414    3.0952 O   0  0  0  0  0  0  0  0  0  0  0  0
   11.7047  -32.6498    1.0822 C   0  0  0  0  0  0  0  0  0  0  0  0
   10.6899  -31.8160    1.5319 N   0  0  0  0  0  0  0  0  0  0  0  0
   11.0065  -31.5526   -0.6824 N   0  0  0  0  0  0  0  0  0  0  0  0
   10.8846  -31.2165   -1.6331 H   0  0  0  0  0  0  0  0  0  0  0  0
   11.9009  -32.5044   -0.2743 C   0  0  0  0  0  0  0  0  0  0  0  0
   12.8183  -33.1610   -1.0483 N   0  0  0  0  0  0  0  0  0  0  0  0
   14.6292  -34.5437   -0.9714 N   0  0  0  0  0  0  0  0  0  0  0  0
   15.7056  -35.1861   -0.4588 C   0  0  0  0  0  0  0  0  0  0  0  0
   16.2454  -36.2876   -1.1543 C   0  0  0  0  0  0  0  0  0  0  0  0
    9.5059  -30.4989    0.4425 H   0  0  0  0  0  0  0  0  0  0  0  0
   14.3929  -34.7314    3.1763 H   0  0  0  0  0  0  0  0  0  0  0  0
   12.9603  -35.7273    3.3687 H   0  0  0  0  0  0  0  0  0  0  0  0
   12.6003  -34.4756    5.5914 H   0  0  0  0  0  0  0  0  0  0  0  0
   13.5058  -36.7528    5.5016 H   0  0  0  0  0  0  0  0  0  0  0  0
   15.1076  -36.1591    5.1410 H   0  0  0  0  0  0  0  0  0  0  0  0
   13.5560  -35.6660    7.7069 H   0  0  0  0  0  0  0  0  0  0  0  0
   14.9250  -36.7473    7.5423 H   0  0  0  0  0  0  0  0  0  0  0  0
   15.6032  -34.5679    8.5483 H   0  0  0  0  0  0  0  0  0  0  0  0
   16.3928  -34.7946    7.0014 H   0  0  0  0  0  0  0  0  0  0  0  0
   13.8906  -33.1093    7.5287 H   0  0  0  0  0  0  0  0  0  0  0  0
   15.4812  -32.4946    7.1586 H   0  0  0  0  0  0  0  0  0  0  0  0
   15.4134  -33.4709    4.9094 H   0  0  0  0  0  0  0  0  0  0  0  0
   13.9956  -32.4809    5.1467 H   0  0  0  0  0  0  0  0  0  0  0  0
   18.8620  -37.0368    0.9147 H   0  0  0  0  0  0  0  0  0  0  0  0
   17.9550  -35.0606    2.1260 H   0  0  0  0  0  0  0  0  0  0  0  0
   15.9798  -33.8791    1.2548 H   0  0  0  0  0  0  0  0  0  0  0  0
   14.5622  -34.5581   -1.9814 H   0  0  0  0  0  0  0  0  0  0  0  0
   15.7924  -36.6282   -2.0734 H   0  0  0  0  0  0  0  0  0  0  0  0
   17.9330  -38.1399   -1.3958 S   0  0  0  0  0  0  0  0  0  0  0  0
   17.8061  -39.3130   -0.5381 O   0  0  0  0  0  0  0  0  0  0  0  0
   17.3817  -38.1207   -2.7460 O   0  0  0  0  0  0  0  0  0  0  0  0
   19.6283  -37.8995   -1.5912 N   0  0  0  0  0  0  0  0  0  0  0  0
   19.9488  -37.1158   -2.1422 H   0  0  0  0  0  0  0  0  0  0  0  0
   20.2630  -38.6040   -1.2427 H   0  0  0  0  0  0  0  0  0  0  0  0
  1 14  1  0  0  0  0
  1 22  2  0  0  0  0
  1 23  1  0  0  0  0
  2 18  2  0  0  0  0
  2 19  1  0  0  0  0
  2 26  1  0  0  0  0
  3  4  1  0  0  0  0
  3 16  1  0  0  0  0
  3 27  1  0  0  0  0
  3 28  1  0  0  0  0
  4  5  1  0  0  0  0
  4  9  1  0  0  0  0
  4 29  1  0  0  0  0
  5  6  1  0  0  0  0
  5 30  1  0  0  0  0
  5 31  1  0  0  0  0
  6  7  1  0  0  0  0
  6 32  1  0  0  0  0
  6 33  1  0  0  0  0
  7  8  1  0  0  0  0
  7 34  1  0  0  0  0
  7 35  1  0  0  0  0
  8  9  1  0  0  0  0
  8 36  1  0  0  0  0
  8 37  1  0  0  0  0
  9 38  1  0  0  0  0
  9 39  1  0  0  0  0
 10 11  1  0  0  0  0
 10 25  2  0  0  0  0
 10 45  1  0  0  0  0
 11 12  2  0  0  0  0
 11 40  1  0  0  0  0
 12 13  1  0  0  0  0
 12 41  1  0  0  0  0
 13 24  2  0  0  0  0
 13 42  1  0  0  0  0
 14 15  2  0  0  0  0
 15 16  1  0  0  0  0
 15 17  1  0  0  0  0
 17 18  1  0  0  0  0
 17 21  2  0  0  0  0
 19 20  1  0  0  0  0
 19 21  1  0  0  0  0
 21 22  1  0  0  0  0
 23 24  1  0  0  0  0
 23 43  1  0  0  0  0
 24 25  1  0  0  0  0
 25 44  1  0  0  0  0
 45 46  2  0  0  0  0
 45 47  2  0  0  0  0
 45 48  1  0  0  0  0
 48 49  1  0  0  0  0
 48 50  1  0  0  0  0
M  END
$$$$
1oiy
  MOE2020           3D

 49 52  0  0  0  0  0  0  0  0999 V2000
   13.5870  -33.9844   -0.3262 C   0  0  0  0  0  0  0  0  0  0  0  0
   10.3122  -31.2108    0.4450 C   0  0  0  0  0  0  0  0  0  0  0  0
   13.3943  -34.7573    3.6162 C   0  0  0  0  0  0  0  0  0  0  0  0
   13.5785  -34.6172    5.1274 C   0  0  0  0  0  0  0  0  0  0  0  0
   14.1883  -35.9212    5.6774 C   0  0  0  0  0  0  0  0  0  0  0  0
   14.4914  -35.8165    7.1739 C   0  0  0  0  0  0  0  0  0  0  0  0
   15.4225  -34.6365    7.4750 C   0  0  0  0  0  0  0  0  0  0  0  0
   14.8026  -33.3251    6.9693 C   0  0  0  0  0  0  0  0  0  0  0  0
   14.4782  -33.4059    5.4683 C   0  0  0  0  0  0  0  0  0  0  0  0
   17.3755  -36.9628   -0.6519 C   0  0  0  0  0  0  0  0  0  0  0  0
   17.9890  -36.5277    0.5374 C   0  0  0  0  0  0  0  0  0  0  0  0
   17.4805  -35.4091    1.2210 C   0  0  0  0  0  0  0  0  0  0  0  0
   16.3497  -34.7395    0.7187 C   0  0  0  0  0  0  0  0  0  0  0  0
   13.4606  -34.2344    0.9776 N   0  0  0  0  0  0  0  0  0  0  0  0
   12.5546  -33.5730    1.7275 C   0  0  0  0  0  0  0  0  0  0  0  0
   12.5395  -33.7414    3.0952 O   0  0  0  0  0  0  0  0  0  0  0  0
   11.7047  -32.6498    1.0822 C   0  0  0  0  0  0  0  0  0  0  0  0
   10.6899  -31.8160    1.5319 N   0  0  0  0  0  0  0  0  0  0  0  0
   11.0065  -31.5526   -0.6824 N   0  0  0  0  0  0  0  0  0  0  0  0
   10.8846  -31.2165   -1.6331 H   0  0  0  0  0  0  0  0  0  0  0  0
   11.9009  -32.5044   -0.2743 C   0  0  0  0  0  0  0  0  0  0  0  0
   12.8183  -33.1610   -1.0483 N   0  0  0  0  0  0  0  0  0  0  0  0
   14.6292  -34.5437   -0.9714 N   0  0  0  0  0  0  0  0  0  0  0  0
   15.7056  -35.1861   -0.4588 C   0  0  0  0  0  0  0  0  0  0  0  0
   16.2454  -36.2876   -1.1543 C   0  0  0  0  0  0  0  0  0  0  0  0
    9.5059  -30.4989    0.4425 H   0  0  0  0  0  0  0  0  0  0  0  0
   14.3929  -34.7314    3.1763 H   0  0  0  0  0  0  0  0  0  0  0  0
   12.9603  -35.7273    3.3687 H   0  0  0  0  0  0  0  0  0  0  0  0
   12.6003  -34.4756    5.5914 H   0  0  0  0  0  0  0  0  0  0  0  0
   13.5058  -36.7528    5.5016 H   0  0  0  0  0  0  0  0  0  0  0  0
   15.1076  -36.1591    5.1410 H   0  0  0  0  0  0  0  0  0  0  0  0
   13.5560  -35.6660    7.7069 H   0  0  0  0  0  0  0  0  0  0  0  0
   14.9250  -36.7473    7.5423 H   0  0  0  0  0  0  0  0  0  0  0  0
   15.6032  -34.5679    8.5483 H   0  0  0  0  0  0  0  0  0  0  0  0
   16.3928  -34.7946    7.0014 H   0  0  0  0  0  0  0  0  0  0  0  0
   13.8906  -33.1093    7.5287 H   0  0  0  0  0  0  0  0  0  0  0  0
   15.4812  -32.4946    7.1586 H   0  0  0  0  0  0  0  0  0  0  0  0
   15.4134  -33.4709    4.9094 H   0  0  0  0  0  0  0  0  0  0  0  0
   13.9956  -32.4809    5.1467 H   0  0  0  0  0  0  0  0  0  0  0  0
   17.7762  -37.8099   -1.1868 H   0  0  0  0  0  0  0  0  0  0  0  0
   17.9550  -35.0606    2.1260 H   0  0  0  0  0  0  0  0  0  0  0  0
   15.9798  -33.8791    1.2548 H   0  0  0  0  0  0  0  0  0  0  0  0
   14.5622  -34.5581   -1.9814 H   0  0  0  0  0  0  0  0  0  0  0  0
   15.7924  -36.6282   -2.0734 H   0  0  0  0  0  0  0  0  0  0  0  0
   19.6803  -38.1074    0.3322 O   0  0  0  0  0  0  0  0  0  0  0  0
   19.1734  -37.2180    1.0489 C   0  0  0  0  0  0  0  0  0  0  0  0
   19.6922  -36.8058    2.3943 N   0  0  0  0  0  0  0  0  0  0  0  0
   19.0593  -36.0039    2.8031 H   0  0  0  0  0  0  0  0  0  0  0  0
   20.5078  -37.2580    2.7821 H   0  0  0  0  0  0  0  0  0  0  0  0
  1 14  1  0  0  0  0
  1 22  2  0  0  0  0
  1 23  1  0  0  0  0
  2 18  2  0  0  0  0
  2 19  1  0  0  0  0
  2 26  1  0  0  0  0
  3  4  1  0  0  0  0
  3 16  1  0  0  0  0
  3 27  1  0  0  0  0
  3 28  1  0  0  0  0
  4  5  1  0  0  0  0
  4  9  1  0  0  0  0
  4 29  1  0  0  0  0
  5  6  1  0  0  0  0
  5 30  1  0  0  0  0
  5 31  1  0  0  0  0
  6  7  1  0  0  0  0
  6 32  1  0  0  0  0
  6 33  1  0  0  0  0
  7  8  1  0  0  0  0
  7 34  1  0  0  0  0
  7 35  1  0  0  0  0
  8  9  1  0  0  0  0
  8 36  1  0  0  0  0
  8 37  1  0  0  0  0
  9 38  1  0  0  0  0
  9 39  1  0  0  0  0
 10 11  1  0  0  0  0
 10 25  2  0  0  0  0
 10 40  1  0  0  0  0
 11 12  2  0  0  0  0
 11 46  1  0  0  0  0
 12 13  1  0  0  0  0
 12 41  1  0  0  0  0
 13 24  2  0  0  0  0
 13 42  1  0  0  0  0
 14 15  2  0  0  0  0
 15 16  1  0  0  0  0
 15 17  1  0  0  0  0
 17 18  1  0  0  0  0
 17 21  2  0  0  0  0
 19 20  1  0  0  0  0
 19 21  1  0  0  0  0
 21 22  1  0  0  0  0
 23 24  1  0  0  0  0
 23 43  1  0  0  0  0
 24 25  1  0  0  0  0
 25 44  1  0  0  0  0
 45 46  2  0  0  0  0
 46 47  1  0  0  0  0
 47 48  1  0  0  0  0
 47 49  1  0  0  0  0
M  END
$$$$
17
  MOE2020           3D

 45 48  0  0  0  0  0  0  0  0999 V2000
   13.5870  -33.9844   -0.3262 C   0  0  0  0  0  0  0  0  0  0  0  0
   10.3122  -31.2108    0.4450 C   0  0  0  0  0  0  0  0  0  0  0  0
   13.3943  -34.7573    3.6162 C   0  0  0  0  0  0  0  0  0  0  0  0
   13.5785  -34.6172    5.1274 C   0  0  0  0  0  0  0  0  0  0  0  0
   14.1883  -35.9212    5.6774 C   0  0  0  0  0  0  0  0  0  0  0  0
   14.4914  -35.8165    7.1739 C   0  0  0  0  0  0  0  0  0  0  0  0
   15.4225  -34.6365    7.4750 C   0  0  0  0  0  0  0  0  0  0  0  0
   14.8026  -33.3251    6.9693 C   0  0  0  0  0  0  0  0  0  0  0  0
   14.4782  -33.4059    5.4683 C   0  0  0  0  0  0  0  0  0  0  0  0
   17.3755  -36.9628   -0.6519 C   0  0  0  0  0  0  0  0  0  0  0  0
   17.9890  -36.5277    0.5374 C   0  0  0  0  0  0  0  0  0  0  0  0
   17.4805  -35.4091    1.2210 C   0  0  0  0  0  0  0  0  0  0  0  0
   16.3497  -34.7395    0.7187 C   0  0  0  0  0  0  0  0  0  0  0  0
   13.4606  -34.2344    0.9776 N   0  0  0  0  0  0  0  0  0  0  0  0
   12.5546  -33.5730    1.7275 C   0  0  0  0  0  0  0  0  0  0  0  0
   12.5395  -33.7414    3.0952 O   0  0  0  0  0  0  0  0  0  0  0  0
   11.7047  -32.6498    1.0822 C   0  0  0  0  0  0  0  0  0  0  0  0
   10.6899  -31.8160    1.5319 N   0  0  0  0  0  0  0  0  0  0  0  0
   11.0065  -31.5526   -0.6824 N   0  0  0  0  0  0  0  0  0  0  0  0
   10.8846  -31.2165   -1.6331 H   0  0  0  0  0  0  0  0  0  0  0  0
   11.9009  -32.5044   -0.2743 C   0  0  0  0  0  0  0  0  0  0  0  0
   12.8183  -33.1610   -1.0483 N   0  0  0  0  0  0  0  0  0  0  0  0
   14.6292  -34.5437   -0.9714 N   0  0  0  0  0  0  0  0  0  0  0  0
   15.7056  -35.1861   -0.4588 C   0  0  0  0  0  0  0  0  0  0  0  0
   16.2454  -36.2876   -1.1543 C   0  0  0  0  0  0  0  0  0  0  0  0
    9.5059  -30.4989    0.4425 H   0  0  0  0  0  0  0  0  0  0  0  0
   14.3929  -34.7314    3.1763 H   0  0  0  0  0  0  0  0  0  0  0  0
   12.9603  -35.7273    3.3687 H   0  0  0  0  0  0  0  0  0  0  0  0
   12.6003  -34.4756    5.5914 H   0  0  0  0  0  0  0  0  0  0  0  0
   13.5058  -36.7528    5.5016 H   0  0  0  0  0  0  0  0  0  0  0  0
   15.1076  -36.1591    5.1410 H   0  0  0  0  0  0  0  0  0  0  0  0
   13.5560  -35.6660    7.7069 H   0  0  0  0  0  0  0  0  0  0  0  0
   14.9250  -36.7473    7.5423 H   0  0  0  0  0  0  0  0  0  0  0  0
   15.6032  -34.5679    8.5483 H   0  0  0  0  0  0  0  0  0  0  0  0
   16.3928  -34.7946    7.0014 H   0  0  0  0  0  0  0  0  0  0  0  0
   13.8906  -33.1093    7.5287 H   0  0  0  0  0  0  0  0  0  0  0  0
   15.4812  -32.4946    7.1586 H   0  0  0  0  0  0  0  0  0  0  0  0
   15.4134  -33.4709    4.9094 H   0  0  0  0  0  0  0  0  0  0  0  0
   13.9956  -32.4809    5.1467 H   0  0  0  0  0  0  0  0  0  0  0  0
   17.7762  -37.8099   -1.1868 H   0  0  0  0  0  0  0  0  0  0  0  0
   18.8620  -37.0368    0.9147 H   0  0  0  0  0  0  0  0  0  0  0  0
   15.9798  -33.8791    1.2548 H   0  0  0  0  0  0  0  0  0  0  0  0
   14.5622  -34.5581   -1.9814 H   0  0  0  0  0  0  0  0  0  0  0  0
   15.7924  -36.6282   -2.0734 H   0  0  0  0  0  0  0  0  0  0  0  0
   18.3115  -34.7996    2.8049 Br  0  0  0  0  0  0  0  0  0  0  0  0
  1 14  1  0  0  0  0
  1 22  2  0  0  0  0
  1 23  1  0  0  0  0
  2 18  2  0  0  0  0
  2 19  1  0  0  0  0
  2 26  1  0  0  0  0
  3  4  1  0  0  0  0
  3 16  1  0  0  0  0
  3 27  1  0  0  0  0
  3 28  1  0  0  0  0
  4  5  1  0  0  0  0
  4  9  1  0  0  0  0
  4 29  1  0  0  0  0
  5  6  1  0  0  0  0
  5 30  1  0  0  0  0
  5 31  1  0  0  0  0
  6  7  1  0  0  0  0
  6 32  1  0  0  0  0
  6 33  1  0  0  0  0
  7  8  1  0  0  0  0
  7 34  1  0  0  0  0
  7 35  1  0  0  0  0
  8  9  1  0  0  0  0
  8 36  1  0  0  0  0
  8 37  1  0  0  0  0
  9 38  1  0  0  0  0
  9 39  1  0  0  0  0
 10 11  1  0  0  0  0
 10 25  2  0  0  0  0
 10 40  1  0  0  0  0
 11 12  2  0  0  0  0
 11 41  1  0  0  0  0
 12 13  1  0  0  0  0
 12 45  1  0  0  0  0
 13 24  2  0  0  0  0
 13 42  1  0  0  0  0
 14 15  2  0  0  0  0
 15 16  1  0  0  0  0
 15 17  1  0  0  0  0
 17 18  1  0  0  0  0
 17 21  2  0  0  0  0
 19 20  1  0  0  0  0
 19 21  1  0  0  0  0
 21 22  1  0  0  0  0
 23 24  1  0  0  0  0
 23 43  1  0  0  0  0
 24 25  1  0  0  0  0
 25 44  1  0  0  0  0
M  END
$$$$
20
  MOE2020           3D

 49 52  0  0  0  0  0  0  0  0999 V2000
   13.5870  -33.9844   -0.3262 C   0  0  0  0  0  0  0  0  0  0  0  0
   10.3122  -31.2108    0.4450 C   0  0  0  0  0  0  0  0  0  0  0  0
   13.3943  -34.7573    3.6162 C   0  0  0  0  0  0  0  0  0  0  0  0
   13.5785  -34.6172    5.1274 C   0  0  0  0  0  0  0  0  0  0  0  0
   14.1883  -35.9212    5.6774 C   0  0  0  0  0  0  0  0  0  0  0  0
   14.4914  -35.8165    7.1739 C   0  0  0  0  0  0  0  0  0  0  0  0
   15.4225  -34.6365    7.4750 C   0  0  0  0  0  0  0  0  0  0  0  0
   14.8026  -33.3251    6.9693 C   0  0  0  0  0  0  0  0  0  0  0  0
   14.4782  -33.4059    5.4683 C   0  0  0  0  0  0  0  0  0  0  0  0
   17.3755  -36.9628   -0.6519 C   0  0  0  0  0  0  0  0  0  0  0  0
   17.9890  -36.5277    0.5374 C   0  0  0  0  0  0  0  0  0  0  0  0
   17.4805  -35.4091    1.2210 C   0  0  0  0  0  0  0  0  0  0  0  0
   16.3497  -34.7395    0.7187 C   0  0  0  0  0  0  0  0  0  0  0  0
   13.4606  -34.2344    0.9776 N   0  0  0  0  0  0  0  0  0  0  0  0
   12.5546  -33.5730    1.7275 C   0  0  0  0  0  0  0  0  0  0  0  0
   12.5395  -33.7414    3.0952 O   0  0  0  0  0  0  0  0  0  0  0  0
   11.7047  -32.6498    1.0822 C   0  0  0  0  0  0  0  0  0  0  0  0
   10.6899  -31.8160    1.5319 N   0  0  0  0  0  0  0  0  0  0  0  0
   11.0065  -31.5526   -0.6824 N   0  0  0  0  0  0  0  0  0  0  0  0
   10.8846  -31.2165   -1.6331 H   0  0  0  0  0  0  0  0  0  0  0  0
   11.9009  -32.5044   -0.2743 C   0  0  0  0  0  0  0  0  0  0  0  0
   12.8183  -33.1610   -1.0483 N   0  0  0  0  0  0  0  0  0  0  0  0
   14.6292  -34.5437   -0.9714 N   0  0  0  0  0  0  0  0  0  0  0  0
   15.7056  -35.1861   -0.4588 C   0  0  0  0  0  0  0  0  0  0  0  0
   16.2454  -36.2876   -1.1543 C   0  0  0  0  0  0  0  0  0  0  0  0
    9.5059  -30.4989    0.4425 H   0  0  0  0  0  0  0  0  0  0  0  0
   14.3929  -34.7314    3.1763 H   0  0  0  0  0  0  0  0  0  0  0  0
   12.9603  -35.7273    3.3687 H   0  0  0  0  0  0  0  0  0  0  0  0
   12.6003  -34.4756    5.5914 H   0  0  0  0  0  0  0  0  0  0  0  0
   13.5058  -36.7528    5.5016 H   0  0  0  0  0  0  0  0  0  0  0  0
   15.1076  -36.1591    5.1410 H   0  0  0  0  0  0  0  0  0  0  0  0
   13.5560  -35.6660    7.7069 H   0  0  0  0  0  0  0  0  0  0  0  0
   14.9250  -36.7473    7.5423 H   0  0  0  0  0  0  0  0  0  0  0  0
   15.6032  -34.5679    8.5483 H   0  0  0  0  0  0  0  0  0  0  0  0
   16.3928  -34.7946    7.0014 H   0  0  0  0  0  0  0  0  0  0  0  0
   13.8906  -33.1093    7.5287 H   0  0  0  0  0  0  0  0  0  0  0  0
   15.4812  -32.4946    7.1586 H   0  0  0  0  0  0  0  0  0  0  0  0
   15.4134  -33.4709    4.9094 H   0  0  0  0  0  0  0  0  0  0  0  0
   13.9956  -32.4809    5.1467 H   0  0  0  0  0  0  0  0  0  0  0  0
   18.8620  -37.0368    0.9147 H   0  0  0  0  0  0  0  0  0  0  0  0
   17.9550  -35.0606    2.1260 H   0  0  0  0  0  0  0  0  0  0  0  0
   15.9798  -33.8791    1.2548 H   0  0  0  0  0  0  0  0  0  0  0  0
   14.5622  -34.5581   -1.9814 H   0  0  0  0  0  0  0  0  0  0  0  0
   15.7924  -36.6282   -2.0734 H   0  0  0  0  0  0  0  0  0  0  0  0
   17.9409  -38.1575   -1.4061 C   0  0  0  0  0  0  0  0  0  0  0  0
   17.3152  -38.3132   -2.2855 H   0  0  0  0  0  0  0  0  0  0  0  0
   18.9662  -37.9126   -1.6843 H   0  0  0  0  0  0  0  0  0  0  0  0
   17.8926  -39.2666   -0.5363 O   0  0  0  0  0  0  0  0  0  0  0  0
   16.9758  -39.3610   -0.2775 H   0  0  0  0  0  0  0  0  0  0  0  0
  1 14  1  0  0  0  0
  1 22  2  0  0  0  0
  1 23  1  0  0  0  0
  2 18  2  0  0  0  0
  2 19  1  0  0  0  0
  2 26  1  0  0  0  0
  3  4  1  0  0  0  0
  3 16  1  0  0  0  0
  3 27  1  0  0  0  0
  3 28  1  0  0  0  0
  4  5  1  0  0  0  0
  4  9  1  0  0  0  0
  4 29  1  0  0  0  0
  5  6  1  0  0  0  0
  5 30  1  0  0  0  0
  5 31  1  0  0  0  0
  6  7  1  0  0  0  0
  6 32  1  0  0  0  0
  6 33  1  0  0  0  0
  7  8  1  0  0  0  0
  7 34  1  0  0  0  0
  7 35  1  0  0  0  0
  8  9  1  0  0  0  0
  8 36  1  0  0  0  0
  8 37  1  0  0  0  0
  9 38  1  0  0  0  0
  9 39  1  0  0  0  0
 10 11  1  0  0  0  0
 10 25  2  0  0  0  0
 10 45  1  0  0  0  0
 11 12  2  0  0  0  0
 11 40  1  0  0  0  0
 12 13  1  0  0  0  0
 12 41  1  0  0  0  0
 13 24  2  0  0  0  0
 13 42  1  0  0  0  0
 14 15  2  0  0  0  0
 15 16  1  0  0  0  0
 15 17  1  0  0  0  0
 17 18  1  0  0  0  0
 17 21  2  0  0  0  0
 19 20  1  0  0  0  0
 19 21  1  0  0  0  0
 21 22  1  0  0  0  0
 23 24  1  0  0  0  0
 23 43  1  0  0  0  0
 24 25  1  0  0  0  0
 25 44  1  0  0  0  0
 45 46  1  0  0  0  0
 45 47  1  0  0  0  0
 45 48  1  0  0  0  0
 48 49  1  0  0  0  0
M  END
$$$$
21
  MOE2020           3D

 49 52  0  0  0  0  0  0  0  0999 V2000
   13.5870  -33.9844   -0.3262 C   0  0  0  0  0  0  0  0  0  0  0  0
   10.3122  -31.2108    0.4450 C   0  0  0  0  0  0  0  0  0  0  0  0
   13.3943  -34.7573    3.6162 C   0  0  0  0  0  0  0  0  0  0  0  0
   13.5785  -34.6172    5.1274 C   0  0  0  0  0  0  0  0  0  0  0  0
   14.1883  -35.9212    5.6774 C   0  0  0  0  0  0  0  0  0  0  0  0
   14.4914  -35.8165    7.1739 C   0  0  0  0  0  0  0  0  0  0  0  0
   15.4225  -34.6365    7.4750 C   0  0  0  0  0  0  0  0  0  0  0  0
   14.8026  -33.3251    6.9693 C   0  0  0  0  0  0  0  0  0  0  0  0
   14.4782  -33.4059    5.4683 C   0  0  0  0  0  0  0  0  0  0  0  0
   17.3755  -36.9628   -0.6519 C   0  0  0  0  0  0  0  0  0  0  0  0
   17.9890  -36.5277    0.5374 C   0  0  0  0  0  0  0  0  0  0  0  0
   17.4805  -35.4091    1.2210 C   0  0  0  0  0  0  0  0  0  0  0  0
   16.3497  -34.7395    0.7187 C   0  0  0  0  0  0  0  0  0  0  0  0
   13.4606  -34.2344    0.9776 N   0  0  0  0  0  0  0  0  0  0  0  0
   12.5546  -33.5730    1.7275 C   0  0  0  0  0  0  0  0  0  0  0  0
   12.5395  -33.7414    3.0952 O   0  0  0  0  0  0  0  0  0  0  0  0
   11.7047  -32.6498    1.0822 C   0  0  0  0  0  0  0  0  0  0  0  0
   10.6899  -31.8160    1.5319 N   0  0  0  0  0  0  0  0  0  0  0  0
   11.0065  -31.5526   -0.6824 N   0  0  0  0  0  0  0  0  0  0  0  0
   10.8846  -31.2165   -1.6331 H   0  0  0  0  0  0  0  0  0  0  0  0
   11.9009  -32.5044   -0.2743 C   0  0  0  0  0  0  0  0  0  0  0  0
   12.8183  -33.1610   -1.0483 N   0  0  0  0  0  0  0  0  0  0  0  0
   14.6292  -34.5437   -0.9714 N   0  0  0  0  0  0  0  0  0  0  0  0
   15.7056  -35.1861   -0.4588 C   0  0  0  0  0  0  0  0  0  0  0  0
   16.2454  -36.2876   -1.1543 C   0  0  0  0  0  0  0  0  0  0  0  0
    9.5059  -30.4989    0.4425 H   0  0  0  0  0  0  0  0  0  0  0  0
   14.3929  -34.7314    3.1763 H   0  0  0  0  0  0  0  0  0  0  0  0
   12.9603  -35.7273    3.3687 H   0  0  0  0  0  0  0  0  0  0  0  0
   12.6003  -34.4756    5.5914 H   0  0  0  0  0  0  0  0  0  0  0  0
   13.5058  -36.7528    5.5016 H   0  0  0  0  0  0  0  0  0  0  0  0
   15.1076  -36.1591    5.1410 H   0  0  0  0  0  0  0  0  0  0  0  0
   13.5560  -35.6660    7.7069 H   0  0  0  0  0  0  0  0  0  0  0  0
   14.9250  -36.7473    7.5423 H   0  0  0  0  0  0  0  0  0  0  0  0
   15.6032  -34.5679    8.5483 H   0  0  0  0  0  0  0  0  0  0  0  0
   16.3928  -34.7946    7.0014 H   0  0  0  0  0  0  0  0  0  0  0  0
   13.8906  -33.1093    7.5287 H   0  0  0  0  0  0  0  0  0  0  0  0
   15.4812  -32.4946    7.1586 H   0  0  0  0  0  0  0  0  0  0  0  0
   15.4134  -33.4709    4.9094 H   0  0  0  0  0  0  0  0  0  0  0  0
   13.9956  -32.4809    5.1467 H   0  0  0  0  0  0  0  0  0  0  0  0
   17.7762  -37.8099   -1.1868 H   0  0  0  0  0  0  0  0  0  0  0  0
   18.8620  -37.0368    0.9147 H   0  0  0  0  0  0  0  0  0  0  0  0
   15.9798  -33.8791    1.2548 H   0  0  0  0  0  0  0  0  0  0  0  0
   14.5622  -34.5581   -1.9814 H   0  0  0  0  0  0  0  0  0  0  0  0
   15.7924  -36.6282   -2.0734 H   0  0  0  0  0  0  0  0  0  0  0  0
   18.0803  -34.9689    2.3638 O   0  0  0  0  0  0  0  0  0  0  0  0
   17.3957  -33.8421    2.8652 C   0  0  0  0  0  0  0  0  0  0  0  0
   17.8952  -33.4889    3.8011 H   0  0  0  0  0  0  0  0  0  0  0  0
   17.4143  -33.0246    2.1010 H   0  0  0  0  0  0  0  0  0  0  0  0
   16.3354  -34.1195    3.0897 H   0  0  0  0  0  0  0  0  0  0  0  0
  1 14  1  0  0  0  0
  1 22  2  0  0  0  0
  1 23  1  0  0  0  0
  2 18  2  0  0  0  0
  2 19  1  0  0  0  0
  2 26  1  0  0  0  0
  3  4  1  0  0  0  0
  3 16  1  0  0  0  0
  3 27  1  0  0  0  0
  3 28  1  0  0  0  0
  4  5  1  0  0  0  0
  4  9  1  0  0  0  0
  4 29  1  0  0  0  0
  5  6  1  0  0  0  0
  5 30  1  0  0  0  0
  5 31  1  0  0  0  0
  6  7  1  0  0  0  0
  6 32  1  0  0  0  0
  6 33  1  0  0  0  0
  7  8  1  0  0  0  0
  7 34  1  0  0  0  0
  7 35  1  0  0  0  0
  8  9  1  0  0  0  0
  8 36  1  0  0  0  0
  8 37  1  0  0  0  0
  9 38  1  0  0  0  0
  9 39  1  0  0  0  0
 10 11  1  0  0  0  0
 10 25  2  0  0  0  0
 10 40  1  0  0  0  0
 11 12  2  0  0  0  0
 11 41  1  0  0  0  0
 12 13  1  0  0  0  0
 12 45  1  0  0  0  0
 13 24  2  0  0  0  0
 13 42  1  0  0  0  0
 14 15  2  0  0  0  0
 15 16  1  0  0  0  0
 15 17  1  0  0  0  0
 17 18  1  0  0  0  0
 17 21  2  0  0  0  0
 19 20  1  0  0  0  0
 19 21  1  0  0  0  0
 21 22  1  0  0  0  0
 23 24  1  0  0  0  0
 23 43  1  0  0  0  0
 24 25  1  0  0  0  0
 25 44  1  0  0  0  0
 45 46  1  0  0  0  0
 46 47  1  0  0  0  0
 46 48  1  0  0  0  0
 46 49  1  0  0  0  0
M  END
$$$$
22
  MOE2020           3D

 49 52  0  0  0  0  0  0  0  0999 V2000
   13.5870  -33.9844   -0.3262 C   0  0  0  0  0  0  0  0  0  0  0  0
   10.3122  -31.2108    0.4450 C   0  0  0  0  0  0  0  0  0  0  0  0
   13.3943  -34.7573    3.6162 C   0  0  0  0  0  0  0  0  0  0  0  0
   13.5785  -34.6172    5.1274 C   0  0  0  0  0  0  0  0  0  0  0  0
   14.1883  -35.9212    5.6774 C   0  0  0  0  0  0  0  0  0  0  0  0
   14.4914  -35.8165    7.1739 C   0  0  0  0  0  0  0  0  0  0  0  0
   15.4225  -34.6365    7.4750 C   0  0  0  0  0  0  0  0  0  0  0  0
   14.8026  -33.3251    6.9693 C   0  0  0  0  0  0  0  0  0  0  0  0
   14.4782  -33.4059    5.4683 C   0  0  0  0  0  0  0  0  0  0  0  0
   17.3755  -36.9628   -0.6519 C   0  0  0  0  0  0  0  0  0  0  0  0
   17.9890  -36.5277    0.5374 C   0  0  0  0  0  0  0  0  0  0  0  0
   17.4805  -35.4091    1.2210 C   0  0  0  0  0  0  0  0  0  0  0  0
   16.3497  -34.7395    0.7187 C   0  0  0  0  0  0  0  0  0  0  0  0
   13.4606  -34.2344    0.9776 N   0  0  0  0  0  0  0  0  0  0  0  0
   12.5546  -33.5730    1.7275 C   0  0  0  0  0  0  0  0  0  0  0  0
   12.5395  -33.7414    3.0952 O   0  0  0  0  0  0  0  0  0  0  0  0
   11.7047  -32.6498    1.0822 C   0  0  0  0  0  0  0  0  0  0  0  0
   10.6899  -31.8160    1.5319 N   0  0  0  0  0  0  0  0  0  0  0  0
   11.0065  -31.5526   -0.6824 N   0  0  0  0  0  0  0  0  0  0  0  0
   10.8846  -31.2165   -1.6331 H   0  0  0  0  0  0  0  0  0  0  0  0
   11.9009  -32.5044   -0.2743 C   0  0  0  0  0  0  0  0  0  0  0  0
   12.8183  -33.1610   -1.0483 N   0  0  0  0  0  0  0  0  0  0  0  0
   14.6292  -34.5437   -0.9714 N   0  0  0  0  0  0  0  0  0  0  0  0
   15.7056  -35.1861   -0.4588 C   0  0  0  0  0  0  0  0  0  0  0  0
   16.2454  -36.2876   -1.1543 C   0  0  0  0  0  0  0  0  0  0  0  0
    9.5059  -30.4989    0.4425 H   0  0  0  0  0  0  0  0  0  0  0  0
   14.3929  -34.7314    3.1763 H   0  0  0  0  0  0  0  0  0  0  0  0
   12.9603  -35.7273    3.3687 H   0  0  0  0  0  0  0  0  0  0  0  0
   12.6003  -34.4756    5.5914 H   0  0  0  0  0  0  0  0  0  0  0  0
   13.5058  -36.7528    5.5016 H   0  0  0  0  0  0  0  0  0  0  0  0
   15.1076  -36.1591    5.1410 H   0  0  0  0  0  0  0  0  0  0  0  0
   13.5560  -35.6660    7.7069 H   0  0  0  0  0  0  0  0  0  0  0  0
   14.9250  -36.7473    7.5423 H   0  0  0  0  0  0  0  0  0  0  0  0
   15.6032  -34.5679    8.5483 H   0  0  0  0  0  0  0  0  0  0  0  0
   16.3928  -34.7946    7.0014 H   0  0  0  0  0  0  0  0  0  0  0  0
   13.8906  -33.1093    7.5287 H   0  0  0  0  0  0  0  0  0  0  0  0
   15.4812  -32.4946    7.1586 H   0  0  0  0  0  0  0  0  0  0  0  0
   15.4134  -33.4709    4.9094 H   0  0  0  0  0  0  0  0  0  0  0  0
   13.9956  -32.4809    5.1467 H   0  0  0  0  0  0  0  0  0  0  0  0
   17.7762  -37.8099   -1.1868 H   0  0  0  0  0  0  0  0  0  0  0  0
   18.8620  -37.0368    0.9147 H   0  0  0  0  0  0  0  0  0  0  0  0
   15.9798  -33.8791    1.2548 H   0  0  0  0  0  0  0  0  0  0  0  0
   14.5622  -34.5581   -1.9814 H   0  0  0  0  0  0  0  0  0  0  0  0
   15.7924  -36.6282   -2.0734 H   0  0  0  0  0  0  0  0  0  0  0  0
   18.2372  -34.8544    2.6623 S   0  0  0  0  0  0  0  0  0  0  0  0
   17.3586  -33.4079    3.3053 C   0  0  0  0  0  0  0  0  0  0  0  0
   17.8576  -33.0541    4.2424 H   0  0  0  0  0  0  0  0  0  0  0  0
   17.3773  -32.5904    2.5412 H   0  0  0  0  0  0  0  0  0  0  0  0
   16.2980  -33.6845    3.5292 H   0  0  0  0  0  0  0  0  0  0  0  0
  1 14  1  0  0  0  0
  1 22  2  0  0  0  0
  1 23  1  0  0  0  0
  2 18  2  0  0  0  0
  2 19  1  0  0  0  0
  2 26  1  0  0  0  0
  3  4  1  0  0  0  0
  3 16  1  0  0  0  0
  3 27  1  0  0  0  0
  3 28  1  0  0  0  0
  4  5  1  0  0  0  0
  4  9  1  0  0  0  0
  4 29  1  0  0  0  0
  5  6  1  0  0  0  0
  5 30  1  0  0  0  0
  5 31  1  0  0  0  0
  6  7  1  0  0  0  0
  6 32  1  0  0  0  0
  6 33  1  0  0  0  0
  7  8  1  0  0  0  0
  7 34  1  0  0  0  0
  7 35  1  0  0  0  0
  8  9  1  0  0  0  0
  8 36  1  0  0  0  0
  8 37  1  0  0  0  0
  9 38  1  0  0  0  0
  9 39  1  0  0  0  0
 10 11  1  0  0  0  0
 10 25  2  0  0  0  0
 10 40  1  0  0  0  0
 11 12  2  0  0  0  0
 11 41  1  0  0  0  0
 12 13  1  0  0  0  0
 12 45  1  0  0  0  0
 13 24  2  0  0  0  0
 13 42  1  0  0  0  0
 14 15  2  0  0  0  0
 15 16  1  0  0  0  0
 15 17  1  0  0  0  0
 17 18  1  0  0  0  0
 17 21  2  0  0  0  0
 19 20  1  0  0  0  0
 19 21  1  0  0  0  0
 21 22  1  0  0  0  0
 23 24  1  0  0  0  0
 23 43  1  0  0  0  0
 24 25  1  0  0  0  0
 25 44  1  0  0  0  0
 45 46  1  0  0  0  0
 46 47  1  0  0  0  0
 46 48  1  0  0  0  0
 46 49  1  0  0  0  0
M  END
$$$$
26
  MOE2020           3D

 49 52  0  0  0  0  0  0  0  0999 V2000
   13.5870  -33.9844   -0.3262 C   0  0  0  0  0  0  0  0  0  0  0  0
   10.3122  -31.2108    0.4450 C   0  0  0  0  0  0  0  0  0  0  0  0
   13.3943  -34.7573    3.6162 C   0  0  0  0  0  0  0  0  0  0  0  0
   13.5785  -34.6172    5.1274 C   0  0  0  0  0  0  0  0  0  0  0  0
   14.1883  -35.9212    5.6774 C   0  0  0  0  0  0  0  0  0  0  0  0
   14.4914  -35.8165    7.1739 C   0  0  0  0  0  0  0  0  0  0  0  0
   15.4225  -34.6365    7.4750 C   0  0  0  0  0  0  0  0  0  0  0  0
   14.8026  -33.3251    6.9693 C   0  0  0  0  0  0  0  0  0  0  0  0
   14.4782  -33.4059    5.4683 C   0  0  0  0  0  0  0  0  0  0  0  0
   17.3755  -36.9628   -0.6519 C   0  0  0  0  0  0  0  0  0  0  0  0
   17.9890  -36.5277    0.5374 C   0  0  0  0  0  0  0  0  0  0  0  0
   17.4805  -35.4091    1.2210 C   0  0  0  0  0  0  0  0  0  0  0  0
   16.3497  -34.7395    0.7187 C   0  0  0  0  0  0  0  0  0  0  0  0
   13.4606  -34.2344    0.9776 N   0  0  0  0  0  0  0  0  0  0  0  0
   12.5546  -33.5730    1.7275 C   0  0  0  0  0  0  0  0  0  0  0  0
   12.5395  -33.7414    3.0952 O   0  0  0  0  0  0  0  0  0  0  0  0
   11.7047  -32.6498    1.0822 C   0  0  0  0  0  0  0  0  0  0  0  0
   10.6899  -31.8160    1.5319 N   0  0  0  0  0  0  0  0  0  0  0  0
   11.0065  -31.5526   -0.6824 N   0  0  0  0  0  0  0  0  0  0  0  0
   10.8846  -31.2165   -1.6331 H   0  0  0  0  0  0  0  0  0  0  0  0
   11.9009  -32.5044   -0.2743 C   0  0  0  0  0  0  0  0  0  0  0  0
   12.8183  -33.1610   -1.0483 N   0  0  0  0  0  0  0  0  0  0  0  0
   14.6292  -34.5437   -0.9714 N   0  0  0  0  0  0  0  0  0  0  0  0
   15.7056  -35.1861   -0.4588 C   0  0  0  0  0  0  0  0  0  0  0  0
   16.2454  -36.2876   -1.1543 C   0  0  0  0  0  0  0  0  0  0  0  0
    9.5059  -30.4989    0.4425 H   0  0  0  0  0  0  0  0  0  0  0  0
   14.3929  -34.7314    3.1763 H   0  0  0  0  0  0  0  0  0  0  0  0
   12.9603  -35.7273    3.3687 H   0  0  0  0  0  0  0  0  0  0  0  0
   12.6003  -34.4756    5.5914 H   0  0  0  0  0  0  0  0  0  0  0  0
   13.5058  -36.7528    5.5016 H   0  0  0  0  0  0  0  0  0  0  0  0
   15.1076  -36.1591    5.1410 H   0  0  0  0  0  0  0  0  0  0  0  0
   13.5560  -35.6660    7.7069 H   0  0  0  0  0  0  0  0  0  0  0  0
   14.9250  -36.7473    7.5423 H   0  0  0  0  0  0  0  0  0  0  0  0
   15.6032  -34.5679    8.5483 H   0  0  0  0  0  0  0  0  0  0  0  0
   16.3928  -34.7946    7.0014 H   0  0  0  0  0  0  0  0  0  0  0  0
   13.8906  -33.1093    7.5287 H   0  0  0  0  0  0  0  0  0  0  0  0
   15.4812  -32.4946    7.1586 H   0  0  0  0  0  0  0  0  0  0  0  0
   15.4134  -33.4709    4.9094 H   0  0  0  0  0  0  0  0  0  0  0  0
   13.9956  -32.4809    5.1467 H   0  0  0  0  0  0  0  0  0  0  0  0
   17.7762  -37.8099   -1.1868 H   0  0  0  0  0  0  0  0  0  0  0  0
   17.9550  -35.0606    2.1260 H   0  0  0  0  0  0  0  0  0  0  0  0
   15.9798  -33.8791    1.2548 H   0  0  0  0  0  0  0  0  0  0  0  0
   14.5622  -34.5581   -1.9814 H   0  0  0  0  0  0  0  0  0  0  0  0
   15.7924  -36.6282   -2.0734 H   0  0  0  0  0  0  0  0  0  0  0  0
   19.0938  -37.1712    1.0144 O   0  0  0  0  0  0  0  0  0  0  0  0
   19.5285  -36.5617    2.2089 C   0  0  0  0  0  0  0  0  0  0  0  0
   20.4340  -37.0961    2.5924 H   0  0  0  0  0  0  0  0  0  0  0  0
   19.7833  -35.4907    2.0105 H   0  0  0  0  0  0  0  0  0  0  0  0
   18.7127  -36.6155    2.9740 H   0  0  0  0  0  0  0  0  0  0  0  0
  1 14  1  0  0  0  0
  1 22  2  0  0  0  0
  1 23  1  0  0  0  0
  2 18  2  0  0  0  0
  2 19  1  0  0  0  0
  2 26  1  0  0  0  0
  3  4  1  0  0  0  0
  3 16  1  0  0  0  0
  3 27  1  0  0  0  0
  3 28  1  0  0  0  0
  4  5  1  0  0  0  0
  4  9  1  0  0  0  0
  4 29  1  0  0  0  0
  5  6  1  0  0  0  0
  5 30  1  0  0  0  0
  5 31  1  0  0  0  0
  6  7  1  0  0  0  0
  6 32  1  0  0  0  0
  6 33  1  0  0  0  0
  7  8  1  0  0  0  0
  7 34  1  0  0  0  0
  7 35  1  0  0  0  0
  8  9  1  0  0  0  0
  8 36  1  0  0  0  0
  8 37  1  0  0  0  0
  9 38  1  0  0  0  0
  9 39  1  0  0  0  0
 10 11  1  0  0  0  0
 10 25  2  0  0  0  0
 10 40  1  0  0  0  0
 11 12  2  0  0  0  0
 11 45  1  0  0  0  0
 12 13  1  0  0  0  0
 12 41  1  0  0  0  0
 13 24  2  0  0  0  0
 13 42  1  0  0  0  0
 14 15  2  0  0  0  0
 15 16  1  0  0  0  0
 15 17  1  0  0  0  0
 17 18  1  0  0  0  0
 17 21  2  0  0  0  0
 19 20  1  0  0  0  0
 19 21  1  0  0  0  0
 21 22  1  0  0  0  0
 23 24  1  0  0  0  0
 23 43  1  0  0  0  0
 24 25  1  0  0  0  0
 25 44  1  0  0  0  0
 45 46  1  0  0  0  0
 46 47  1  0  0  0  0
 46 48  1  0  0  0  0
 46 49  1  0  0  0  0
M  END
$$$$
28
  MOE2020           3D

 53 56  0  0  0  0  0  0  0  0999 V2000
   13.5870  -33.9844   -0.3262 C   0  0  0  0  0  0  0  0  0  0  0  0
   10.3122  -31.2108    0.4450 C   0  0  0  0  0  0  0  0  0  0  0  0
   13.3943  -34.7573    3.6162 C   0  0  0  0  0  0  0  0  0  0  0  0
   13.5785  -34.6172    5.1274 C   0  0  0  0  0  0  0  0  0  0  0  0
   14.1883  -35.9212    5.6774 C   0  0  0  0  0  0  0  0  0  0  0  0
   14.4914  -35.8165    7.1739 C   0  0  0  0  0  0  0  0  0  0  0  0
   15.4225  -34.6365    7.4750 C   0  0  0  0  0  0  0  0  0  0  0  0
   14.8026  -33.3251    6.9693 C   0  0  0  0  0  0  0  0  0  0  0  0
   14.4782  -33.4059    5.4683 C   0  0  0  0  0  0  0  0  0  0  0  0
   17.3755  -36.9628   -0.6519 C   0  0  0  0  0  0  0  0  0  0  0  0
   17.9890  -36.5277    0.5374 C   0  0  0  0  0  0  0  0  0  0  0  0
   17.4805  -35.4091    1.2210 C   0  0  0  0  0  0  0  0  0  0  0  0
   16.3497  -34.7395    0.7187 C   0  0  0  0  0  0  0  0  0  0  0  0
   13.4606  -34.2344    0.9776 N   0  0  0  0  0  0  0  0  0  0  0  0
   12.5546  -33.5730    1.7275 C   0  0  0  0  0  0  0  0  0  0  0  0
   12.5395  -33.7414    3.0952 O   0  0  0  0  0  0  0  0  0  0  0  0
   11.7047  -32.6498    1.0822 C   0  0  0  0  0  0  0  0  0  0  0  0
   10.6899  -31.8160    1.5319 N   0  0  0  0  0  0  0  0  0  0  0  0
   11.0065  -31.5526   -0.6824 N   0  0  0  0  0  0  0  0  0  0  0  0
   10.8846  -31.2165   -1.6331 H   0  0  0  0  0  0  0  0  0  0  0  0
   11.9009  -32.5044   -0.2743 C   0  0  0  0  0  0  0  0  0  0  0  0
   12.8183  -33.1610   -1.0483 N   0  0  0  0  0  0  0  0  0  0  0  0
   14.6292  -34.5437   -0.9714 N   0  0  0  0  0  0  0  0  0  0  0  0
   15.7056  -35.1861   -0.4588 C   0  0  0  0  0  0  0  0  0  0  0  0
   16.2454  -36.2876   -1.1543 C   0  0  0  0  0  0  0  0  0  0  0  0
    9.5059  -30.4989    0.4425 H   0  0  0  0  0  0  0  0  0  0  0  0
   14.3929  -34.7314    3.1763 H   0  0  0  0  0  0  0  0  0  0  0  0
   12.9603  -35.7273    3.3687 H   0  0  0  0  0  0  0  0  0  0  0  0
   12.6003  -34.4756    5.5914 H   0  0  0  0  0  0  0  0  0  0  0  0
   13.5058  -36.7528    5.5016 H   0  0  0  0  0  0  0  0  0  0  0  0
   15.1076  -36.1591    5.1410 H   0  0  0  0  0  0  0  0  0  0  0  0
   13.5560  -35.6660    7.7069 H   0  0  0  0  0  0  0  0  0  0  0  0
   14.9250  -36.7473    7.5423 H   0  0  0  0  0  0  0  0  0  0  0  0
   15.6032  -34.5679    8.5483 H   0  0  0  0  0  0  0  0  0  0  0  0
   16.3928  -34.7946    7.0014 H   0  0  0  0  0  0  0  0  0  0  0  0
   13.8906  -33.1093    7.5287 H   0  0  0  0  0  0  0  0  0  0  0  0
   15.4812  -32.4946    7.1586 H   0  0  0  0  0  0  0  0  0  0  0  0
   15.4134  -33.4709    4.9094 H   0  0  0  0  0  0  0  0  0  0  0  0
   13.9956  -32.4809    5.1467 H   0  0  0  0  0  0  0  0  0  0  0  0
   17.7762  -37.8099   -1.1868 H   0  0  0  0  0  0  0  0  0  0  0  0
   17.9550  -35.0606    2.1260 H   0  0  0  0  0  0  0  0  0  0  0  0
   15.9798  -33.8791    1.2548 H   0  0  0  0  0  0  0  0  0  0  0  0
   14.5622  -34.5581   -1.9814 H   0  0  0  0  0  0  0  0  0  0  0  0
   15.7924  -36.6282   -2.0734 H   0  0  0  0  0  0  0  0  0  0  0  0
   19.2035  -37.2352    1.0618 S   0  0  0  0  0  0  0  0  0  0  0  0
   19.3224  -38.5055    0.3567 O   0  0  0  0  0  0  0  0  0  0  0  0
   20.3017  -36.2773    1.0941 O   0  0  0  0  0  0  0  0  0  0  0  0
   18.9137  -37.6525    2.7091 N   0  0  0  0  0  0  0  0  0  0  0  0
   18.4429  -38.5211    2.9150 H   0  0  0  0  0  0  0  0  0  0  0  0
   19.2144  -36.6793    3.7392 C   0  0  0  0  0  0  0  0  0  0  0  0
   18.9636  -37.1320    4.6983 H   0  0  0  0  0  0  0  0  0  0  0  0
   20.2781  -36.4511    3.6709 H   0  0  0  0  0  0  0  0  0  0  0  0
   18.6033  -35.7977    3.5420 H   0  0  0  0  0  0  0  0  0  0  0  0
  1 14  1  0  0  0  0
  1 22  2  0  0  0  0
  1 23  1  0  0  0  0
  2 18  2  0  0  0  0
  2 19  1  0  0  0  0
  2 26  1  0  0  0  0
  3  4  1  0  0  0  0
  3 16  1  0  0  0  0
  3 27  1  0  0  0  0
  3 28  1  0  0  0  0
  4  5  1  0  0  0  0
  4  9  1  0  0  0  0
  4 29  1  0  0  0  0
  5  6  1  0  0  0  0
  5 30  1  0  0  0  0
  5 31  1  0  0  0  0
  6  7  1  0  0  0  0
  6 32  1  0  0  0  0
  6 33  1  0  0  0  0
  7  8  1  0  0  0  0
  7 34  1  0  0  0  0
  7 35  1  0  0  0  0
  8  9  1  0  0  0  0
  8 36  1  0  0  0  0
  8 37  1  0  0  0  0
  9 38  1  0  0  0  0
  9 39  1  0  0  0  0
 10 11  1  0  0  0  0
 10 25  2  0  0  0  0
 10 40  1  0  0  0  0
 11 12  2  0  0  0  0
 11 45  1  0  0  0  0
 12 13  1  0  0  0  0
 12 41  1  0  0  0  0
 13 24  2  0  0  0  0
 13 42  1  0  0  0  0
 14 15  2  0  0  0  0
 15 16  1  0  0  0  0
 15 17  1  0  0  0  0
 17 18  1  0  0  0  0
 17 21  2  0  0  0  0
 19 20  1  0  0  0  0
 19 21  1  0  0  0  0
 21 22  1  0  0  0  0
 23 24  1  0  0  0  0
 23 43  1  0  0  0  0
 24 25  1  0  0  0  0
 25 44  1  0  0  0  0
 45 46  2  0  0  0  0
 45 47  2  0  0  0  0
 45 48  1  0  0  0  0
 48 49  1  0  0  0  0
 48 50  1  0  0  0  0
 50 51  1  0  0  0  0
 50 52  1  0  0  0  0
 50 53  1  0  0  0  0
M  END
$$$$
29
  MOE2020           3D

 56 59  0  0  0  0  0  0  0  0999 V2000
   13.5870  -33.9844   -0.3262 C   0  0  0  0  0  0  0  0  0  0  0  0
   10.3122  -31.2108    0.4450 C   0  0  0  0  0  0  0  0  0  0  0  0
   13.3943  -34.7573    3.6162 C   0  0  0  0  0  0  0  0  0  0  0  0
   13.5785  -34.6172    5.1274 C   0  0  0  0  0  0  0  0  0  0  0  0
   14.1883  -35.9212    5.6774 C   0  0  0  0  0  0  0  0  0  0  0  0
   14.4914  -35.8165    7.1739 C   0  0  0  0  0  0  0  0  0  0  0  0
   15.4225  -34.6365    7.4750 C   0  0  0  0  0  0  0  0  0  0  0  0
   14.8026  -33.3251    6.9693 C   0  0  0  0  0  0  0  0  0  0  0  0
   14.4782  -33.4059    5.4683 C   0  0  0  0  0  0  0  0  0  0  0  0
   17.3755  -36.9628   -0.6519 C   0  0  0  0  0  0  0  0  0  0  0  0
   17.9890  -36.5277    0.5374 C   0  0  0  0  0  0  0  0  0  0  0  0
   17.4805  -35.4091    1.2210 C   0  0  0  0  0  0  0  0  0  0  0  0
   16.3497  -34.7395    0.7187 C   0  0  0  0  0  0  0  0  0  0  0  0
   13.4606  -34.2344    0.9776 N   0  0  0  0  0  0  0  0  0  0  0  0
   12.5546  -33.5730    1.7275 C   0  0  0  0  0  0  0  0  0  0  0  0
   12.5395  -33.7414    3.0952 O   0  0  0  0  0  0  0  0  0  0  0  0
   11.7047  -32.6498    1.0822 C   0  0  0  0  0  0  0  0  0  0  0  0
   10.6899  -31.8160    1.5319 N   0  0  0  0  0  0  0  0  0  0  0  0
   11.0065  -31.5526   -0.6824 N   0  0  0  0  0  0  0  0  0  0  0  0
   10.8846  -31.2165   -1.6331 H   0  0  0  0  0  0  0  0  0  0  0  0
   11.9009  -32.5044   -0.2743 C   0  0  0  0  0  0  0  0  0  0  0  0
   12.8183  -33.1610   -1.0483 N   0  0  0  0  0  0  0  0  0  0  0  0
   14.6292  -34.5437   -0.9714 N   0  0  0  0  0  0  0  0  0  0  0  0
   15.7056  -35.1861   -0.4588 C   0  0  0  0  0  0  0  0  0  0  0  0
   16.2454  -36.2876   -1.1543 C   0  0  0  0  0  0  0  0  0  0  0  0
    9.5059  -30.4989    0.4425 H   0  0  0  0  0  0  0  0  0  0  0  0
   14.3929  -34.7314    3.1763 H   0  0  0  0  0  0  0  0  0  0  0  0
   12.9603  -35.7273    3.3687 H   0  0  0  0  0  0  0  0  0  0  0  0
   12.6003  -34.4756    5.5914 H   0  0  0  0  0  0  0  0  0  0  0  0
   13.5058  -36.7528    5.5016 H   0  0  0  0  0  0  0  0  0  0  0  0
   15.1076  -36.1591    5.1410 H   0  0  0  0  0  0  0  0  0  0  0  0
   13.5560  -35.6660    7.7069 H   0  0  0  0  0  0  0  0  0  0  0  0
   14.9250  -36.7473    7.5423 H   0  0  0  0  0  0  0  0  0  0  0  0
   15.6032  -34.5679    8.5483 H   0  0  0  0  0  0  0  0  0  0  0  0
   16.3928  -34.7946    7.0014 H   0  0  0  0  0  0  0  0  0  0  0  0
   13.8906  -33.1093    7.5287 H   0  0  0  0  0  0  0  0  0  0  0  0
   15.4812  -32.4946    7.1586 H   0  0  0  0  0  0  0  0  0  0  0  0
   15.4134  -33.4709    4.9094 H   0  0  0  0  0  0  0  0  0  0  0  0
   13.9956  -32.4809    5.1467 H   0  0  0  0  0  0  0  0  0  0  0  0
   17.7762  -37.8099   -1.1868 H   0  0  0  0  0  0  0  0  0  0  0  0
   17.9550  -35.0606    2.1260 H   0  0  0  0  0  0  0  0  0  0  0  0
   15.9798  -33.8791    1.2548 H   0  0  0  0  0  0  0  0  0  0  0  0
   14.5622  -34.5581   -1.9814 H   0  0  0  0  0  0  0  0  0  0  0  0
   15.7924  -36.6282   -2.0734 H   0  0  0  0  0  0  0  0  0  0  0  0
   19.2035  -37.2352    1.0618 S   0  0  0  0  0  0  0  0  0  0  0  0
   19.3224  -38.5055    0.3567 O   0  0  0  0  0  0  0  0  0  0  0  0
   20.3017  -36.2773    1.0941 O   0  0  0  0  0  0  0  0  0  0  0  0
   18.9512  -37.5977    2.4952 N   0  0  0  0  0  0  0  0  0  0  0  0
   18.4986  -38.9319    2.8363 C   0  0  0  0  0  0  0  0  0  0  0  0
   18.3972  -39.5410    1.9026 H   0  0  0  0  0  0  0  0  0  0  0  0
   19.2428  -39.4155    3.5170 H   0  0  0  0  0  0  0  0  0  0  0  0
   17.5074  -38.8693    3.3503 H   0  0  0  0  0  0  0  0  0  0  0  0
   19.1604  -36.6154    3.5392 C   0  0  0  0  0  0  0  0  0  0  0  0
   18.9209  -37.0703    4.5326 H   0  0  0  0  0  0  0  0  0  0  0  0
   20.2284  -36.2813    3.5291 H   0  0  0  0  0  0  0  0  0  0  0  0
   18.4927  -35.7357    3.3617 H   0  0  0  0  0  0  0  0  0  0  0  0
  1 14  1  0  0  0  0
  1 22  2  0  0  0  0
  1 23  1  0  0  0  0
  2 18  2  0  0  0  0
  2 19  1  0  0  0  0
  2 26  1  0  0  0  0
  3  4  1  0  0  0  0
  3 16  1  0  0  0  0
  3 27  1  0  0  0  0
  3 28  1  0  0  0  0
  4  5  1  0  0  0  0
  4  9  1  0  0  0  0
  4 29  1  0  0  0  0
  5  6  1  0  0  0  0
  5 30  1  0  0  0  0
  5 31  1  0  0  0  0
  6  7  1  0  0  0  0
  6 32  1  0  0  0  0
  6 33  1  0  0  0  0
  7  8  1  0  0  0  0
  7 34  1  0  0  0  0
  7 35  1  0  0  0  0
  8  9  1  0  0  0  0
  8 36  1  0  0  0  0
  8 37  1  0  0  0  0
  9 38  1  0  0  0  0
  9 39  1  0  0  0  0
 10 11  1  0  0  0  0
 10 25  2  0  0  0  0
 10 40  1  0  0  0  0
 11 12  2  0  0  0  0
 11 45  1  0  0  0  0
 12 13  1  0  0  0  0
 12 41  1  0  0  0  0
 13 24  2  0  0  0  0
 13 42  1  0  0  0  0
 14 15  2  0  0  0  0
 15 16  1  0  0  0  0
 15 17  1  0  0  0  0
 17 18  1  0  0  0  0
 17 21  2  0  0  0  0
 19 20  1  0  0  0  0
 19 21  1  0  0  0  0
 21 22  1  0  0  0  0
 23 24  1  0  0  0  0
 23 43  1  0  0  0  0
 24 25  1  0  0  0  0
 25 44  1  0  0  0  0
 45 46  2  0  0  0  0
 45 47  2  0  0  0  0
 45 48  1  0  0  0  0
 48 49  1  0  0  0  0
 48 53  1  0  0  0  0
 49 50  1  0  0  0  0
 49 51  1  0  0  0  0
 49 52  1  0  0  0  0
 53 54  1  0  0  0  0
 53 55  1  0  0  0  0
 53 56  1  0  0  0  0
M  END
$$$$
30
  MOE2020           3D

 51 54  0  0  0  0  0  0  0  0999 V2000
   13.5870  -33.9844   -0.3262 C   0  0  0  0  0  0  0  0  0  0  0  0
   10.3122  -31.2108    0.4450 C   0  0  0  0  0  0  0  0  0  0  0  0
   13.3943  -34.7573    3.6162 C   0  0  0  0  0  0  0  0  0  0  0  0
   13.5785  -34.6172    5.1274 C   0  0  0  0  0  0  0  0  0  0  0  0
   14.1883  -35.9212    5.6774 C   0  0  0  0  0  0  0  0  0  0  0  0
   14.4914  -35.8165    7.1739 C   0  0  0  0  0  0  0  0  0  0  0  0
   15.4225  -34.6365    7.4750 C   0  0  0  0  0  0  0  0  0  0  0  0
   14.8026  -33.3251    6.9693 C   0  0  0  0  0  0  0  0  0  0  0  0
   14.4782  -33.4059    5.4683 C   0  0  0  0  0  0  0  0  0  0  0  0
   17.3755  -36.9628   -0.6519 C   0  0  0  0  0  0  0  0  0  0  0  0
   17.9890  -36.5277    0.5374 C   0  0  0  0  0  0  0  0  0  0  0  0
   17.4805  -35.4091    1.2210 C   0  0  0  0  0  0  0  0  0  0  0  0
   16.3497  -34.7395    0.7187 C   0  0  0  0  0  0  0  0  0  0  0  0
   13.4606  -34.2344    0.9776 N   0  0  0  0  0  0  0  0  0  0  0  0
   12.5546  -33.5730    1.7275 C   0  0  0  0  0  0  0  0  0  0  0  0
   12.5395  -33.7414    3.0952 O   0  0  0  0  0  0  0  0  0  0  0  0
   11.7047  -32.6498    1.0822 C   0  0  0  0  0  0  0  0  0  0  0  0
   10.6899  -31.8160    1.5319 N   0  0  0  0  0  0  0  0  0  0  0  0
   11.0065  -31.5526   -0.6824 N   0  0  0  0  0  0  0  0  0  0  0  0
   10.8846  -31.2165   -1.6331 H   0  0  0  0  0  0  0  0  0  0  0  0
   11.9009  -32.5044   -0.2743 C   0  0  0  0  0  0  0  0  0  0  0  0
   12.8183  -33.1610   -1.0483 N   0  0  0  0  0  0  0  0  0  0  0  0
   14.6292  -34.5437   -0.9714 N   0  0  0  0  0  0  0  0  0  0  0  0
   15.7056  -35.1861   -0.4588 C   0  0  0  0  0  0  0  0  0  0  0  0
   16.2454  -36.2876   -1.1543 C   0  0  0  0  0  0  0  0  0  0  0  0
    9.5059  -30.4989    0.4425 H   0  0  0  0  0  0  0  0  0  0  0  0
   14.3929  -34.7314    3.1763 H   0  0  0  0  0  0  0  0  0  0  0  0
   12.9603  -35.7273    3.3687 H   0  0  0  0  0  0  0  0  0  0  0  0
   12.6003  -34.4756    5.5914 H   0  0  0  0  0  0  0  0  0  0  0  0
   13.5058  -36.7528    5.5016 H   0  0  0  0  0  0  0  0  0  0  0  0
   15.1076  -36.1591    5.1410 H   0  0  0  0  0  0  0  0  0  0  0  0
   13.5560  -35.6660    7.7069 H   0  0  0  0  0  0  0  0  0  0  0  0
   14.9250  -36.7473    7.5423 H   0  0  0  0  0  0  0  0  0  0  0  0
   15.6032  -34.5679    8.5483 H   0  0  0  0  0  0  0  0  0  0  0  0
   16.3928  -34.7946    7.0014 H   0  0  0  0  0  0  0  0  0  0  0  0
   13.8906  -33.1093    7.5287 H   0  0  0  0  0  0  0  0  0  0  0  0
   15.4812  -32.4946    7.1586 H   0  0  0  0  0  0  0  0  0  0  0  0
   15.4134  -33.4709    4.9094 H   0  0  0  0  0  0  0  0  0  0  0  0
   13.9956  -32.4809    5.1467 H   0  0  0  0  0  0  0  0  0  0  0  0
   17.7762  -37.8099   -1.1868 H   0  0  0  0  0  0  0  0  0  0  0  0
   17.9550  -35.0606    2.1260 H   0  0  0  0  0  0  0  0  0  0  0  0
   15.9798  -33.8791    1.2548 H   0  0  0  0  0  0  0  0  0  0  0  0
   14.5622  -34.5581   -1.9814 H   0  0  0  0  0  0  0  0  0  0  0  0
   15.7924  -36.6282   -2.0734 H   0  0  0  0  0  0  0  0  0  0  0  0
   19.2035  -37.2352    1.0618 S   0  0  0  0  0  0  0  0  0  0  0  0
   19.3224  -38.5055    0.3567 O   0  0  0  0  0  0  0  0  0  0  0  0
   20.3017  -36.2773    1.0941 O   0  0  0  0  0  0  0  0  0  0  0  0
   18.9512  -37.5977    2.4952 C   0  0  0  0  0  0  0  0  0  0  0  0
   19.8405  -38.1107    2.8623 H   0  0  0  0  0  0  0  0  0  0  0  0
   18.7721  -36.6705    3.0390 H   0  0  0  0  0  0  0  0  0  0  0  0
   18.0777  -38.2495    2.5164 H   0  0  0  0  0  0  0  0  0  0  0  0
  1 14  1  0  0  0  0
  1 22  2  0  0  0  0
  1 23  1  0  0  0  0
  2 18  2  0  0  0  0
  2 19  1  0  0  0  0
  2 26  1  0  0  0  0
  3  4  1  0  0  0  0
  3 16  1  0  0  0  0
  3 27  1  0  0  0  0
  3 28  1  0  0  0  0
  4  5  1  0  0  0  0
  4  9  1  0  0  0  0
  4 29  1  0  0  0  0
  5  6  1  0  0  0  0
  5 30  1  0  0  0  0
  5 31  1  0  0  0  0
  6  7  1  0  0  0  0
  6 32  1  0  0  0  0
  6 33  1  0  0  0  0
  7  8  1  0  0  0  0
  7 34  1  0  0  0  0
  7 35  1  0  0  0  0
  8  9  1  0  0  0  0
  8 36  1  0  0  0  0
  8 37  1  0  0  0  0
  9 38  1  0  0  0  0
  9 39  1  0  0  0  0
 10 11  1  0  0  0  0
 10 25  2  0  0  0  0
 10 40  1  0  0  0  0
 11 12  2  0  0  0  0
 11 45  1  0  0  0  0
 12 13  1  0  0  0  0
 12 41  1  0  0  0  0
 13 24  2  0  0  0  0
 13 42  1  0  0  0  0
 14 15  2  0  0  0  0
 15 16  1  0  0  0  0
 15 17  1  0  0  0  0
 17 18  1  0  0  0  0
 17 21  2  0  0  0  0
 19 20  1  0  0  0  0
 19 21  1  0  0  0  0
 21 22  1  0  0  0  0
 23 24  1  0  0  0  0
 23 43  1  0  0  0  0
 24 25  1  0  0  0  0
 25 44  1  0  0  0  0
 45 46  2  0  0  0  0
 45 47  2  0  0  0  0
 45 48  1  0  0  0  0
 48 49  1  0  0  0  0
 48 50  1  0  0  0  0
 48 51  1  0  0  0  0
M  END
$$$$
31
  MOE2020           3D

 50 53  0  0  0  0  0  0  0  0999 V2000
   13.5870  -33.9844   -0.3262 C   0  0  0  0  0  0  0  0  0  0  0  0
   10.3122  -31.2108    0.4450 C   0  0  0  0  0  0  0  0  0  0  0  0
   13.3943  -34.7573    3.6162 C   0  0  0  0  0  0  0  0  0  0  0  0
   13.5785  -34.6172    5.1274 C   0  0  0  0  0  0  0  0  0  0  0  0
   14.1883  -35.9212    5.6774 C   0  0  0  0  0  0  0  0  0  0  0  0
   14.4914  -35.8165    7.1739 C   0  0  0  0  0  0  0  0  0  0  0  0
   15.4225  -34.6365    7.4750 C   0  0  0  0  0  0  0  0  0  0  0  0
   14.8026  -33.3251    6.9693 C   0  0  0  0  0  0  0  0  0  0  0  0
   14.4782  -33.4059    5.4683 C   0  0  0  0  0  0  0  0  0  0  0  0
   17.3755  -36.9628   -0.6519 C   0  0  0  0  0  0  0  0  0  0  0  0
   17.9890  -36.5277    0.5374 C   0  0  0  0  0  0  0  0  0  0  0  0
   17.4805  -35.4091    1.2210 C   0  0  0  0  0  0  0  0  0  0  0  0
   16.3497  -34.7395    0.7187 C   0  0  0  0  0  0  0  0  0  0  0  0
   13.4606  -34.2344    0.9776 N   0  0  0  0  0  0  0  0  0  0  0  0
   12.5546  -33.5730    1.7275 C   0  0  0  0  0  0  0  0  0  0  0  0
   12.5395  -33.7414    3.0952 O   0  0  0  0  0  0  0  0  0  0  0  0
   11.7047  -32.6498    1.0822 C   0  0  0  0  0  0  0  0  0  0  0  0
   10.6899  -31.8160    1.5319 N   0  0  0  0  0  0  0  0  0  0  0  0
   11.0065  -31.5526   -0.6824 N   0  0  0  0  0  0  0  0  0  0  0  0
   10.8846  -31.2165   -1.6331 H   0  0  0  0  0  0  0  0  0  0  0  0
   11.9009  -32.5044   -0.2743 C   0  0  0  0  0  0  0  0  0  0  0  0
   12.8183  -33.1610   -1.0483 N   0  0  0  0  0  0  0  0  0  0  0  0
   14.6292  -34.5437   -0.9714 N   0  0  0  0  0  0  0  0  0  0  0  0
   15.7056  -35.1861   -0.4588 C   0  0  0  0  0  0  0  0  0  0  0  0
   16.2454  -36.2876   -1.1543 C   0  0  0  0  0  0  0  0  0  0  0  0
    9.5059  -30.4989    0.4425 H   0  0  0  0  0  0  0  0  0  0  0  0
   14.3929  -34.7314    3.1763 H   0  0  0  0  0  0  0  0  0  0  0  0
   12.9603  -35.7273    3.3687 H   0  0  0  0  0  0  0  0  0  0  0  0
   12.6003  -34.4756    5.5914 H   0  0  0  0  0  0  0  0  0  0  0  0
   13.5058  -36.7528    5.5016 H   0  0  0  0  0  0  0  0  0  0  0  0
   15.1076  -36.1591    5.1410 H   0  0  0  0  0  0  0  0  0  0  0  0
   13.5560  -35.6660    7.7069 H   0  0  0  0  0  0  0  0  0  0  0  0
   14.9250  -36.7473    7.5423 H   0  0  0  0  0  0  0  0  0  0  0  0
   15.6032  -34.5679    8.5483 H   0  0  0  0  0  0  0  0  0  0  0  0
   16.3928  -34.7946    7.0014 H   0  0  0  0  0  0  0  0  0  0  0  0
   13.8906  -33.1093    7.5287 H   0  0  0  0  0  0  0  0  0  0  0  0
   15.4812  -32.4946    7.1586 H   0  0  0  0  0  0  0  0  0  0  0  0
   15.4134  -33.4709    4.9094 H   0  0  0  0  0  0  0  0  0  0  0  0
   13.9956  -32.4809    5.1467 H   0  0  0  0  0  0  0  0  0  0  0  0
   17.7762  -37.8099   -1.1868 H   0  0  0  0  0  0  0  0  0  0  0  0
   17.9550  -35.0606    2.1260 H   0  0  0  0  0  0  0  0  0  0  0  0
   15.9798  -33.8791    1.2548 H   0  0  0  0  0  0  0  0  0  0  0  0
   14.5622  -34.5581   -1.9814 H   0  0  0  0  0  0  0  0  0  0  0  0
   15.7924  -36.6282   -2.0734 H   0  0  0  0  0  0  0  0  0  0  0  0
   19.2035  -37.2352    1.0618 S   0  0  0  0  0  0  0  0  0  0  0  0
   19.6988  -38.2530    0.4231 O   0  0  0  0  0  0  0  0  0  0  0  0
   19.8390  -36.7528    2.3324 C   0  0  0  0  0  0  0  0  0  0  0  0
   19.2680  -35.8740    2.7246 H   0  0  0  0  0  0  0  0  0  0  0  0
   19.8268  -37.5740    3.0911 H   0  0  0  0  0  0  0  0  0  0  0  0
   20.8964  -36.4493    2.1281 H   0  0  0  0  0  0  0  0  0  0  0  0
  1 14  1  0  0  0  0
  1 22  2  0  0  0  0
  1 23  1  0  0  0  0
  2 18  2  0  0  0  0
  2 19  1  0  0  0  0
  2 26  1  0  0  0  0
  3  4  1  0  0  0  0
  3 16  1  0  0  0  0
  3 27  1  0  0  0  0
  3 28  1  0  0  0  0
  4  5  1  0  0  0  0
  4  9  1  0  0  0  0
  4 29  1  0  0  0  0
  5  6  1  0  0  0  0
  5 30  1  0  0  0  0
  5 31  1  0  0  0  0
  6  7  1  0  0  0  0
  6 32  1  0  0  0  0
  6 33  1  0  0  0  0
  7  8  1  0  0  0  0
  7 34  1  0  0  0  0
  7 35  1  0  0  0  0
  8  9  1  0  0  0  0
  8 36  1  0  0  0  0
  8 37  1  0  0  0  0
  9 38  1  0  0  0  0
  9 39  1  0  0  0  0
 10 11  1  0  0  0  0
 10 25  2  0  0  0  0
 10 40  1  0  0  0  0
 11 12  2  0  0  0  0
 11 45  1  0  0  0  0
 12 13  1  0  0  0  0
 12 41  1  0  0  0  0
 13 24  2  0  0  0  0
 13 42  1  0  0  0  0
 14 15  2  0  0  0  0
 15 16  1  0  0  0  0
 15 17  1  0  0  0  0
 17 18  1  0  0  0  0
 17 21  2  0  0  0  0
 19 20  1  0  0  0  0
 19 21  1  0  0  0  0
 21 22  1  0  0  0  0
 23 24  1  0  0  0  0
 23 43  1  0  0  0  0
 24 25  1  0  0  0  0
 25 44  1  0  0  0  0
 45 46  2  0  0  0  0
 45 47  1  0  0  0  0
 47 48  1  0  0  0  0
 47 49  1  0  0  0  0
 47 50  1  0  0  0  0
M  END
$$$$
32
  MOE2020           3D

 54 57  0  0  0  0  0  0  0  0999 V2000
   13.5870  -33.9844   -0.3262 C   0  0  0  0  0  0  0  0  0  0  0  0
   10.3122  -31.2108    0.4450 C   0  0  0  0  0  0  0  0  0  0  0  0
   13.3943  -34.7573    3.6162 C   0  0  0  0  0  0  0  0  0  0  0  0
   13.5785  -34.6172    5.1274 C   0  0  0  0  0  0  0  0  0  0  0  0
   14.1883  -35.9212    5.6774 C   0  0  0  0  0  0  0  0  0  0  0  0
   14.4914  -35.8165    7.1739 C   0  0  0  0  0  0  0  0  0  0  0  0
   15.4225  -34.6365    7.4750 C   0  0  0  0  0  0  0  0  0  0  0  0
   14.8026  -33.3251    6.9693 C   0  0  0  0  0  0  0  0  0  0  0  0
   14.4782  -33.4059    5.4683 C   0  0  0  0  0  0  0  0  0  0  0  0
   17.3755  -36.9628   -0.6519 C   0  0  0  0  0  0  0  0  0  0  0  0
   17.9890  -36.5277    0.5374 C   0  0  0  0  0  0  0  0  0  0  0  0
   17.4805  -35.4091    1.2210 C   0  0  0  0  0  0  0  0  0  0  0  0
   16.3497  -34.7395    0.7187 C   0  0  0  0  0  0  0  0  0  0  0  0
   13.4606  -34.2344    0.9776 N   0  0  0  0  0  0  0  0  0  0  0  0
   12.5546  -33.5730    1.7275 C   0  0  0  0  0  0  0  0  0  0  0  0
   12.5395  -33.7414    3.0952 O   0  0  0  0  0  0  0  0  0  0  0  0
   11.7047  -32.6498    1.0822 C   0  0  0  0  0  0  0  0  0  0  0  0
   10.6899  -31.8160    1.5319 N   0  0  0  0  0  0  0  0  0  0  0  0
   11.0065  -31.5526   -0.6824 N   0  0  0  0  0  0  0  0  0  0  0  0
   10.8846  -31.2165   -1.6331 H   0  0  0  0  0  0  0  0  0  0  0  0
   11.9009  -32.5044   -0.2743 C   0  0  0  0  0  0  0  0  0  0  0  0
   12.8183  -33.1610   -1.0483 N   0  0  0  0  0  0  0  0  0  0  0  0
   14.6292  -34.5437   -0.9714 N   0  0  0  0  0  0  0  0  0  0  0  0
   15.7056  -35.1861   -0.4588 C   0  0  0  0  0  0  0  0  0  0  0  0
   16.2454  -36.2876   -1.1543 C   0  0  0  0  0  0  0  0  0  0  0  0
    9.5059  -30.4989    0.4425 H   0  0  0  0  0  0  0  0  0  0  0  0
   14.3929  -34.7314    3.1763 H   0  0  0  0  0  0  0  0  0  0  0  0
   12.9603  -35.7273    3.3687 H   0  0  0  0  0  0  0  0  0  0  0  0
   12.6003  -34.4756    5.5914 H   0  0  0  0  0  0  0  0  0  0  0  0
   13.5058  -36.7528    5.5016 H   0  0  0  0  0  0  0  0  0  0  0  0
   15.1076  -36.1591    5.1410 H   0  0  0  0  0  0  0  0  0  0  0  0
   13.5560  -35.6660    7.7069 H   0  0  0  0  0  0  0  0  0  0  0  0
   14.9250  -36.7473    7.5423 H   0  0  0  0  0  0  0  0  0  0  0  0
   15.6032  -34.5679    8.5483 H   0  0  0  0  0  0  0  0  0  0  0  0
   16.3928  -34.7946    7.0014 H   0  0  0  0  0  0  0  0  0  0  0  0
   13.8906  -33.1093    7.5287 H   0  0  0  0  0  0  0  0  0  0  0  0
   15.4812  -32.4946    7.1586 H   0  0  0  0  0  0  0  0  0  0  0  0
   15.4134  -33.4709    4.9094 H   0  0  0  0  0  0  0  0  0  0  0  0
   13.9956  -32.4809    5.1467 H   0  0  0  0  0  0  0  0  0  0  0  0
   17.7762  -37.8099   -1.1868 H   0  0  0  0  0  0  0  0  0  0  0  0
   15.9798  -33.8791    1.2548 H   0  0  0  0  0  0  0  0  0  0  0  0
   14.5622  -34.5581   -1.9814 H   0  0  0  0  0  0  0  0  0  0  0  0
   15.7924  -36.6282   -2.0734 H   0  0  0  0  0  0  0  0  0  0  0  0
   19.2035  -37.2352    1.0618 S   0  0  0  0  0  0  0  0  0  0  0  0
   19.3224  -38.5055    0.3567 O   0  0  0  0  0  0  0  0  0  0  0  0
   20.3017  -36.2773    1.0941 O   0  0  0  0  0  0  0  0  0  0  0  0
   18.9137  -37.6525    2.7091 N   0  0  0  0  0  0  0  0  0  0  0  0
   18.7790  -36.9120    3.3813 H   0  0  0  0  0  0  0  0  0  0  0  0
   18.9919  -38.6203    2.9865 H   0  0  0  0  0  0  0  0  0  0  0  0
   18.0803  -34.9689    2.3638 O   0  0  0  0  0  0  0  0  0  0  0  0
   17.3957  -33.8421    2.8652 C   0  0  0  0  0  0  0  0  0  0  0  0
   17.8952  -33.4889    3.8011 H   0  0  0  0  0  0  0  0  0  0  0  0
   17.4143  -33.0246    2.1010 H   0  0  0  0  0  0  0  0  0  0  0  0
   16.3354  -34.1195    3.0897 H   0  0  0  0  0  0  0  0  0  0  0  0
  1 14  1  0  0  0  0
  1 22  2  0  0  0  0
  1 23  1  0  0  0  0
  2 18  2  0  0  0  0
  2 19  1  0  0  0  0
  2 26  1  0  0  0  0
  3  4  1  0  0  0  0
  3 16  1  0  0  0  0
  3 27  1  0  0  0  0
  3 28  1  0  0  0  0
  4  5  1  0  0  0  0
  4  9  1  0  0  0  0
  4 29  1  0  0  0  0
  5  6  1  0  0  0  0
  5 30  1  0  0  0  0
  5 31  1  0  0  0  0
  6  7  1  0  0  0  0
  6 32  1  0  0  0  0
  6 33  1  0  0  0  0
  7  8  1  0  0  0  0
  7 34  1  0  0  0  0
  7 35  1  0  0  0  0
  8  9  1  0  0  0  0
  8 36  1  0  0  0  0
  8 37  1  0  0  0  0
  9 38  1  0  0  0  0
  9 39  1  0  0  0  0
 10 11  1  0  0  0  0
 10 25  2  0  0  0  0
 10 40  1  0  0  0  0
 11 12  2  0  0  0  0
 11 44  1  0  0  0  0
 12 13  1  0  0  0  0
 12 50  1  0  0  0  0
 13 24  2  0  0  0  0
 13 41  1  0  0  0  0
 14 15  2  0  0  0  0
 15 16  1  0  0  0  0
 15 17  1  0  0  0  0
 17 18  1  0  0  0  0
 17 21  2  0  0  0  0
 19 20  1  0  0  0  0
 19 21  1  0  0  0  0
 21 22  1  0  0  0  0
 23 24  1  0  0  0  0
 23 42  1  0  0  0  0
 24 25  1  0  0  0  0
 25 43  1  0  0  0  0
 44 45  2  0  0  0  0
 44 46  2  0  0  0  0
 44 47  1  0  0  0  0
 47 48  1  0  0  0  0
 47 49  1  0  0  0  0
 50 51  1  0  0  0  0
 51 52  1  0  0  0  0
 51 53  1  0  0  0  0
 51 54  1  0  0  0  0
M  END
$$$$