ejm_31
                    3D
 Structure written by MMmdl.
 32 33  0  0  1  0            999 V2000
  -15.0209   18.6628  -36.4304 C   0  0  0  0  0  0                  
  -15.5021   18.3166  -37.6896 C   0  0  0  0  0  0                  
  -16.8526   18.0393  -37.8718 C   0  0  0  0  0  0                  
  -17.7400   18.0969  -36.7817 C   0  0  0  0  0  0                  
  -17.2447   18.4602  -35.5142 C   0  0  0  0  0  0                  
  -15.8925   18.7331  -35.3521 C   0  0  0  0  0  0                  
  -18.3221   18.5666  -34.1516 Cl  0  0  0  0  0  0                  
  -19.1819   17.7875  -36.9195 C   0  0  0  0  0  0                  
  -19.5904   16.7080  -36.5249 O   0  0  0  0  0  0                  
  -19.9896   18.7325  -37.4387 N   0  0  0  0  0  0                  
  -21.3775   18.7083  -37.6116 C   0  0  0  0  0  0                  
  -22.2656   17.7815  -37.0310 C   0  0  0  0  0  0                  
  -23.6346   17.9530  -37.2129 C   0  0  0  0  0  0                  
  -24.1086   18.9677  -37.9305 N   0  0  0  0  0  0                  
  -23.3067   19.8633  -38.5047 C   0  0  0  0  0  0                  
  -21.9260   19.7772  -38.3125 C   0  0  0  0  0  0                  
  -23.8704   20.9423  -39.1949 N   0  0  0  0  0  0                  
  -23.2955   21.6643  -40.1929 C   0  0  0  0  0  0                  
  -22.1788   21.4300  -40.6247 O   0  0  0  0  0  0                  
  -24.1067   22.8108  -40.7446 C   0  0  0  0  0  0                  
  -17.4297   17.6488  -39.4558 Cl  0  0  0  0  0  0                  
  -24.9261   23.1178  -40.1021 H   0  0  0  0  0  0                  
  -13.9707   18.8765  -36.2931 H   0  0  0  0  0  0                  
  -14.8253   18.2623  -38.5299 H   0  0  0  0  0  0                  
  -15.5207   19.0025  -34.3741 H   0  0  0  0  0  0                  
  -19.5999   19.6043  -37.7678 H   0  0  0  0  0  0                  
  -21.8803   16.9532  -36.4547 H   0  0  0  0  0  0                  
  -24.3301   17.2564  -36.7683 H   0  0  0  0  0  0                  
  -21.2828   20.5473  -38.7121 H   0  0  0  0  0  0                  
  -24.8026   21.2582  -38.9652 H   0  0  0  0  0  0                  
  -24.4982   22.5381  -41.7245 H   0  0  0  0  0  0                  
  -23.4514   23.6626  -40.9265 H   0  0  0  0  0  0                  
  1  2  1  0  0  0
  1  6  2  0  0  0
  1 23  1  0  0  0
  2  3  2  0  0  0
  2 24  1  0  0  0
  3  4  1  0  0  0
  3 21  1  0  0  0
  4  5  2  0  0  0
  4  8  1  0  0  0
  5  6  1  0  0  0
  5  7  1  0  0  0
  6 25  1  0  0  0
  8  9  2  0  0  0
  8 10  1  0  0  0
 10 11  1  0  0  0
 10 26  1  0  0  0
 11 12  1  0  0  0
 11 16  2  0  0  0
 12 13  2  0  0  0
 12 27  1  0  0  0
 13 14  1  0  0  0
 13 28  1  0  0  0
 14 15  2  0  0  0
 15 16  1  0  0  0
 15 17  1  0  0  0
 16 29  1  0  0  0
 17 18  1  0  0  0
 17 30  1  0  0  0
 18 19  2  0  0  0
 18 20  1  0  0  0
 20 22  1  0  0  0
 20 31  1  0  0  0
 20 32  1  0  0  0
M  END
> <r_user_dG.exp>
-9.54

$$$$
jmc_30
                    3D
 Structure written by MMmdl.
 37 39  0  0  1  0            999 V2000
  -15.0209   18.6628  -36.4304 C   0  0  0  0  0  0                  
  -15.5021   18.3166  -37.6896 C   0  0  0  0  0  0                  
  -16.8526   18.0393  -37.8718 C   0  0  0  0  0  0                  
  -17.7400   18.0969  -36.7817 C   0  0  0  0  0  0                  
  -17.2447   18.4602  -35.5142 C   0  0  0  0  0  0                  
  -15.8925   18.7331  -35.3521 C   0  0  0  0  0  0                  
  -18.3221   18.5666  -34.1516 Cl  0  0  0  0  0  0                  
  -19.1819   17.7875  -36.9195 C   0  0  0  0  0  0                  
  -19.5904   16.7080  -36.5249 O   0  0  0  0  0  0                  
  -19.9896   18.7325  -37.4387 N   0  0  0  0  0  0                  
  -21.3775   18.7083  -37.6116 C   0  0  0  0  0  0                  
  -22.2656   17.7815  -37.0310 C   0  0  0  0  0  0                  
  -23.6346   17.9530  -37.2129 C   0  0  0  0  0  0                  
  -24.1086   18.9677  -37.9305 N   0  0  0  0  0  0                  
  -23.3067   19.8633  -38.5047 C   0  0  0  0  0  0                  
  -21.9260   19.7772  -38.3125 C   0  0  0  0  0  0                  
  -23.8704   20.9423  -39.1949 N   0  0  0  0  0  0                  
  -23.2955   21.6643  -40.1929 C   0  0  0  0  0  0                  
  -22.1788   21.4300  -40.6247 O   0  0  0  0  0  0                  
  -24.1067   22.8108  -40.7446 C   0  0  1  0  0  0                  
  -23.4058   23.9092  -41.5506 C   0  0  0  0  0  0                  
  -24.3211   22.9039  -42.2519 C   0  0  1  0  0  0                  
  -23.6751   21.8476  -43.0986 C   0  0  0  0  0  0                  
  -17.4297   17.6488  -39.4558 Cl  0  0  0  0  0  0                  
  -24.9261   23.1178  -40.1021 H   0  0  0  0  0  0                  
  -25.2817   23.2732  -42.6064 H   0  0  0  0  0  0                  
  -13.9707   18.8765  -36.2931 H   0  0  0  0  0  0                  
  -14.8253   18.2623  -38.5299 H   0  0  0  0  0  0                  
  -15.5207   19.0025  -34.3741 H   0  0  0  0  0  0                  
  -19.5999   19.6043  -37.7678 H   0  0  0  0  0  0                  
  -21.8803   16.9532  -36.4547 H   0  0  0  0  0  0                  
  -24.3301   17.2564  -36.7683 H   0  0  0  0  0  0                  
  -21.2828   20.5473  -38.7121 H   0  0  0  0  0  0                  
  -24.8026   21.2582  -38.9652 H   0  0  0  0  0  0                  
  -23.7156   24.8868  -41.1795 H   0  0  0  0  0  0                  
  -22.3252   23.8060  -41.4442 H   0  0  0  0  0  0                  
  -23.0415   20.8116  -43.9289 N   0  0  0  0  0  0                  
  1  2  1  0  0  0
  1  6  2  0  0  0
  1 27  1  0  0  0
  2  3  2  0  0  0
  2 28  1  0  0  0
  3  4  1  0  0  0
  3 24  1  0  0  0
  4  5  2  0  0  0
  4  8  1  0  0  0
  5  6  1  0  0  0
  5  7  1  0  0  0
  6 29  1  0  0  0
  8  9  2  0  0  0
  8 10  1  0  0  0
 10 11  1  0  0  0
 10 30  1  0  0  0
 11 12  1  0  0  0
 11 16  2  0  0  0
 12 13  2  0  0  0
 12 31  1  0  0  0
 13 14  1  0  0  0
 13 32  1  0  0  0
 14 15  2  0  0  0
 15 16  1  0  0  0
 15 17  1  0  0  0
 16 33  1  0  0  0
 17 18  1  0  0  0
 17 34  1  0  0  0
 18 19  2  0  0  0
 18 20  1  0  0  0
 20 21  1  0  0  0
 20 22  1  0  0  0
 20 25  1  0  0  0
 21 22  1  0  0  0
 21 35  1  0  0  0
 21 36  1  0  0  0
 22 23  1  0  0  0
 22 26  1  0  0  0
 23 37  3  0  0  0
M  END
> <r_user_dG.exp>
-10.94

$$$$
ejm_50
                    3D
 Structure written by MMmdl.
 33 34  0  0  1  0            999 V2000
  -15.0209   18.6628  -36.4304 C   0  0  0  0  0  0                  
  -15.5021   18.3166  -37.6896 C   0  0  0  0  0  0                  
  -16.8526   18.0393  -37.8718 C   0  0  0  0  0  0                  
  -17.7400   18.0969  -36.7817 C   0  0  0  0  0  0                  
  -17.2447   18.4602  -35.5142 C   0  0  0  0  0  0                  
  -15.8925   18.7331  -35.3521 C   0  0  0  0  0  0                  
  -18.3221   18.5666  -34.1516 Cl  0  0  0  0  0  0                  
  -19.1819   17.7875  -36.9195 C   0  0  0  0  0  0                  
  -19.5904   16.7080  -36.5249 O   0  0  0  0  0  0                  
  -19.9896   18.7325  -37.4387 N   0  0  0  0  0  0                  
  -21.3775   18.7083  -37.6116 C   0  0  0  0  0  0                  
  -22.2656   17.7815  -37.0310 C   0  0  0  0  0  0                  
  -23.6346   17.9530  -37.2129 C   0  0  0  0  0  0                  
  -24.1086   18.9677  -37.9305 N   0  0  0  0  0  0                  
  -23.3067   19.8633  -38.5047 C   0  0  0  0  0  0                  
  -21.9260   19.7772  -38.3125 C   0  0  0  0  0  0                  
  -23.8704   20.9423  -39.1949 N   0  0  0  0  0  0                  
  -23.2955   21.6643  -40.1929 C   0  0  0  0  0  0                  
  -22.1788   21.4300  -40.6247 O   0  0  0  0  0  0                  
  -24.1067   22.8108  -40.7446 C   0  0  0  0  0  0                  
  -17.4297   17.6488  -39.4558 Cl  0  0  0  0  0  0                  
  -25.1617   22.5847  -40.8636 H   0  0  0  0  0  0                  
  -13.9707   18.8765  -36.2931 H   0  0  0  0  0  0                  
  -14.8253   18.2623  -38.5299 H   0  0  0  0  0  0                  
  -15.5207   19.0025  -34.3741 H   0  0  0  0  0  0                  
  -19.5999   19.6043  -37.7678 H   0  0  0  0  0  0                  
  -21.8803   16.9532  -36.4547 H   0  0  0  0  0  0                  
  -24.3301   17.2564  -36.7683 H   0  0  0  0  0  0                  
  -21.2828   20.5473  -38.7121 H   0  0  0  0  0  0                  
  -24.8026   21.2582  -38.9652 H   0  0  0  0  0  0                  
  -23.9940   23.6788  -40.0949 H   0  0  0  0  0  0                  
  -24.1207   24.0617  -42.4663 H   0  0  0  0  0  0                  
  -23.5501   23.2700  -42.0990 O   0  0  0  0  0  0                  
  1  2  1  0  0  0
  1  6  2  0  0  0
  1 23  1  0  0  0
  2  3  2  0  0  0
  2 24  1  0  0  0
  3  4  1  0  0  0
  3 21  1  0  0  0
  4  5  2  0  0  0
  4  8  1  0  0  0
  5  6  1  0  0  0
  5  7  1  0  0  0
  6 25  1  0  0  0
  8  9  2  0  0  0
  8 10  1  0  0  0
 10 11  1  0  0  0
 10 26  1  0  0  0
 11 12  1  0  0  0
 11 16  2  0  0  0
 12 13  2  0  0  0
 12 27  1  0  0  0
 13 14  1  0  0  0
 13 28  1  0  0  0
 14 15  2  0  0  0
 15 16  1  0  0  0
 15 17  1  0  0  0
 16 29  1  0  0  0
 17 18  1  0  0  0
 17 30  1  0  0  0
 18 19  2  0  0  0
 18 20  1  0  0  0
 20 22  1  0  0  0
 20 31  1  0  0  0
 20 33  1  0  0  0
 32 33  1  0  0  0
M  END
> <r_user_dG.exp>
-8.98

$$$$
ejm_46
                    3D
 Structure written by MMmdl.
 36 38  0  0  1  0            999 V2000
  -15.0209   18.6628  -36.4304 C   0  0  0  0  0  0                  
  -15.5021   18.3166  -37.6896 C   0  0  0  0  0  0                  
  -16.8526   18.0393  -37.8718 C   0  0  0  0  0  0                  
  -17.7400   18.0969  -36.7817 C   0  0  0  0  0  0                  
  -17.2447   18.4602  -35.5142 C   0  0  0  0  0  0                  
  -15.8925   18.7331  -35.3521 C   0  0  0  0  0  0                  
  -18.3221   18.5666  -34.1516 Cl  0  0  0  0  0  0                  
  -19.1819   17.7875  -36.9195 C   0  0  0  0  0  0                  
  -19.5904   16.7080  -36.5249 O   0  0  0  0  0  0                  
  -19.9896   18.7325  -37.4387 N   0  0  0  0  0  0                  
  -21.3775   18.7083  -37.6116 C   0  0  0  0  0  0                  
  -22.2656   17.7815  -37.0310 C   0  0  0  0  0  0                  
  -23.6346   17.9530  -37.2129 C   0  0  0  0  0  0                  
  -24.1086   18.9677  -37.9305 N   0  0  0  0  0  0                  
  -23.3067   19.8633  -38.5047 C   0  0  0  0  0  0                  
  -21.9260   19.7772  -38.3125 C   0  0  0  0  0  0                  
  -23.8704   20.9423  -39.1949 N   0  0  0  0  0  0                  
  -23.2955   21.6643  -40.1929 C   0  0  0  0  0  0                  
  -22.1788   21.4300  -40.6247 O   0  0  0  0  0  0                  
  -24.1067   22.8108  -40.7446 C   0  0  0  0  0  0                  
  -23.4058   23.9092  -41.5506 C   0  0  0  0  0  0                  
  -24.3211   22.9039  -42.2519 C   0  0  0  0  0  0                  
  -23.8516   22.1363  -42.8672 H   0  0  0  0  0  0                  
  -17.4297   17.6488  -39.4558 Cl  0  0  0  0  0  0                  
  -24.9261   23.1178  -40.1021 H   0  0  0  0  0  0                  
  -25.2817   23.2732  -42.6064 H   0  0  0  0  0  0                  
  -13.9707   18.8765  -36.2931 H   0  0  0  0  0  0                  
  -14.8253   18.2623  -38.5299 H   0  0  0  0  0  0                  
  -15.5207   19.0025  -34.3741 H   0  0  0  0  0  0                  
  -19.5999   19.6043  -37.7678 H   0  0  0  0  0  0                  
  -21.8803   16.9532  -36.4547 H   0  0  0  0  0  0                  
  -24.3301   17.2564  -36.7683 H   0  0  0  0  0  0                  
  -21.2828   20.5473  -38.7121 H   0  0  0  0  0  0                  
  -24.8026   21.2582  -38.9652 H   0  0  0  0  0  0                  
  -23.7156   24.8868  -41.1795 H   0  0  0  0  0  0                  
  -22.3252   23.8060  -41.4442 H   0  0  0  0  0  0                  
  1  2  1  0  0  0
  1  6  2  0  0  0
  1 27  1  0  0  0
  2  3  2  0  0  0
  2 28  1  0  0  0
  3  4  1  0  0  0
  3 24  1  0  0  0
  4  5  2  0  0  0
  4  8  1  0  0  0
  5  6  1  0  0  0
  5  7  1  0  0  0
  6 29  1  0  0  0
  8  9  2  0  0  0
  8 10  1  0  0  0
 10 11  1  0  0  0
 10 30  1  0  0  0
 11 12  1  0  0  0
 11 16  2  0  0  0
 12 13  2  0  0  0
 12 31  1  0  0  0
 13 14  1  0  0  0
 13 32  1  0  0  0
 14 15  2  0  0  0
 15 16  1  0  0  0
 15 17  1  0  0  0
 16 33  1  0  0  0
 17 18  1  0  0  0
 17 34  1  0  0  0
 18 19  2  0  0  0
 18 20  1  0  0  0
 20 21  1  0  0  0
 20 22  1  0  0  0
 20 25  1  0  0  0
 21 22  1  0  0  0
 21 35  1  0  0  0
 21 36  1  0  0  0
 22 23  1  0  0  0
 22 26  1  0  0  0
M  END
> <r_user_dG.exp>
-11.31

$$$$
ejm_55
                    3D
 Structure written by MMmdl.
 33 34  0  0  1  0            999 V2000
  -15.0209   18.6628  -36.4304 C   0  0  0  0  0  0                  
  -15.5021   18.3166  -37.6896 C   0  0  0  0  0  0                  
  -16.8526   18.0393  -37.8718 C   0  0  0  0  0  0                  
  -17.7400   18.0969  -36.7817 C   0  0  0  0  0  0                  
  -17.2447   18.4602  -35.5142 C   0  0  0  0  0  0                  
  -15.8925   18.7331  -35.3521 C   0  0  0  0  0  0                  
  -18.3221   18.5666  -34.1516 Cl  0  0  0  0  0  0                  
  -19.1819   17.7875  -36.9195 C   0  0  0  0  0  0                  
  -19.5904   16.7080  -36.5249 O   0  0  0  0  0  0                  
  -19.9896   18.7325  -37.4387 N   0  0  0  0  0  0                  
  -21.3775   18.7083  -37.6116 C   0  0  0  0  0  0                  
  -22.2656   17.7815  -37.0310 C   0  0  0  0  0  0                  
  -23.6346   17.9530  -37.2129 C   0  0  0  0  0  0                  
  -24.1086   18.9677  -37.9305 N   0  0  0  0  0  0                  
  -23.3067   19.8633  -38.5047 C   0  0  0  0  0  0                  
  -21.9260   19.7772  -38.3125 C   0  0  0  0  0  0                  
  -23.8704   20.9423  -39.1949 N   0  0  0  0  0  0                  
  -23.2955   21.6643  -40.1929 C   0  0  0  0  0  0                  
  -22.1788   21.4300  -40.6247 O   0  0  0  0  0  0                  
  -17.4297   17.6488  -39.4558 Cl  0  0  0  0  0  0                  
  -13.9707   18.8765  -36.2931 H   0  0  0  0  0  0                  
  -14.8253   18.2623  -38.5299 H   0  0  0  0  0  0                  
  -15.5207   19.0025  -34.3741 H   0  0  0  0  0  0                  
  -19.5999   19.6043  -37.7678 H   0  0  0  0  0  0                  
  -21.8803   16.9532  -36.4547 H   0  0  0  0  0  0                  
  -24.3301   17.2564  -36.7683 H   0  0  0  0  0  0                  
  -21.2828   20.5473  -38.7121 H   0  0  0  0  0  0                  
  -24.8026   21.2582  -38.9652 H   0  0  0  0  0  0                  
  -23.6390   23.3280  -42.0653 C   0  0  0  0  0  0                  
  -24.4188   23.9463  -42.5097 H   0  0  0  0  0  0                  
  -22.7428   23.9292  -41.9115 H   0  0  0  0  0  0                  
  -24.1204   22.8153  -40.7329 O   0  0  0  0  0  0                  
  -23.4126   22.4893  -42.7237 H   0  0  0  0  0  0                  
  1  2  1  0  0  0
  1  6  2  0  0  0
  1 21  1  0  0  0
  2  3  2  0  0  0
  2 22  1  0  0  0
  3  4  1  0  0  0
  3 20  1  0  0  0
  4  5  2  0  0  0
  4  8  1  0  0  0
  5  6  1  0  0  0
  5  7  1  0  0  0
  6 23  1  0  0  0
  8  9  2  0  0  0
  8 10  1  0  0  0
 10 11  1  0  0  0
 10 24  1  0  0  0
 11 12  1  0  0  0
 11 16  2  0  0  0
 12 13  2  0  0  0
 12 25  1  0  0  0
 13 14  1  0  0  0
 13 26  1  0  0  0
 14 15  2  0  0  0
 15 16  1  0  0  0
 15 17  1  0  0  0
 16 27  1  0  0  0
 17 18  1  0  0  0
 17 28  1  0  0  0
 18 19  2  0  0  0
 18 32  1  0  0  0
 29 30  1  0  0  0
 29 31  1  0  0  0
 29 32  1  0  0  0
 29 33  1  0  0  0
M  END
> <r_user_dG.exp>
-9.21

$$$$
ejm_43
                    3D
 Structure written by MMmdl.
 38 39  0  0  1  0            999 V2000
  -15.0209   18.6628  -36.4304 C   0  0  0  0  0  0                  
  -15.5021   18.3166  -37.6896 C   0  0  0  0  0  0                  
  -16.8526   18.0393  -37.8718 C   0  0  0  0  0  0                  
  -17.7400   18.0969  -36.7817 C   0  0  0  0  0  0                  
  -17.2447   18.4602  -35.5142 C   0  0  0  0  0  0                  
  -15.8925   18.7331  -35.3521 C   0  0  0  0  0  0                  
  -18.3221   18.5666  -34.1516 Cl  0  0  0  0  0  0                  
  -19.1819   17.7875  -36.9195 C   0  0  0  0  0  0                  
  -19.5904   16.7080  -36.5249 O   0  0  0  0  0  0                  
  -19.9896   18.7325  -37.4387 N   0  0  0  0  0  0                  
  -21.3775   18.7083  -37.6116 C   0  0  0  0  0  0                  
  -22.2656   17.7815  -37.0310 C   0  0  0  0  0  0                  
  -23.6346   17.9530  -37.2129 C   0  0  0  0  0  0                  
  -24.1086   18.9677  -37.9305 N   0  0  0  0  0  0                  
  -23.3067   19.8633  -38.5047 C   0  0  0  0  0  0                  
  -21.9260   19.7772  -38.3125 C   0  0  0  0  0  0                  
  -23.8704   20.9423  -39.1949 N   0  0  0  0  0  0                  
  -23.2955   21.6643  -40.1929 C   0  0  0  0  0  0                  
  -22.1788   21.4300  -40.6247 O   0  0  0  0  0  0                  
  -24.1067   22.8108  -40.7446 C   0  0  0  0  0  0                  
  -17.4297   17.6488  -39.4558 Cl  0  0  0  0  0  0                  
  -25.5646   22.4985  -40.9090 C   0  0  0  0  0  0                  
  -13.9707   18.8765  -36.2931 H   0  0  0  0  0  0                  
  -14.8253   18.2623  -38.5299 H   0  0  0  0  0  0                  
  -15.5207   19.0025  -34.3741 H   0  0  0  0  0  0                  
  -19.5999   19.6043  -37.7678 H   0  0  0  0  0  0                  
  -21.8803   16.9532  -36.4547 H   0  0  0  0  0  0                  
  -24.3301   17.2564  -36.7683 H   0  0  0  0  0  0                  
  -21.2828   20.5473  -38.7121 H   0  0  0  0  0  0                  
  -24.8026   21.2582  -38.9652 H   0  0  0  0  0  0                  
  -23.5363   23.2334  -42.0659 C   0  0  0  0  0  0                  
  -23.9940   23.6788  -40.0949 H   0  0  0  0  0  0                  
  -24.1207   24.0617  -42.4663 H   0  0  0  0  0  0                  
  -22.5023   23.5508  -41.9311 H   0  0  0  0  0  0                  
  -23.5707   22.3952  -42.7619 H   0  0  0  0  0  0                  
  -26.0806   23.3709  -41.3098 H   0  0  0  0  0  0                  
  -25.6818   21.6602  -41.5959 H   0  0  0  0  0  0                  
  -25.9920   22.2368  -39.9412 H   0  0  0  0  0  0                  
  1  2  1  0  0  0
  1  6  2  0  0  0
  1 23  1  0  0  0
  2  3  2  0  0  0
  2 24  1  0  0  0
  3  4  1  0  0  0
  3 21  1  0  0  0
  4  5  2  0  0  0
  4  8  1  0  0  0
  5  6  1  0  0  0
  5  7  1  0  0  0
  6 25  1  0  0  0
  8  9  2  0  0  0
  8 10  1  0  0  0
 10 11  1  0  0  0
 10 26  1  0  0  0
 11 12  1  0  0  0
 11 16  2  0  0  0
 12 13  2  0  0  0
 12 27  1  0  0  0
 13 14  1  0  0  0
 13 28  1  0  0  0
 14 15  2  0  0  0
 15 16  1  0  0  0
 15 17  1  0  0  0
 16 29  1  0  0  0
 17 18  1  0  0  0
 17 30  1  0  0  0
 18 19  2  0  0  0
 18 20  1  0  0  0
 20 22  1  0  0  0
 20 31  1  0  0  0
 20 32  1  0  0  0
 22 36  1  0  0  0
 22 37  1  0  0  0
 22 38  1  0  0  0
 31 33  1  0  0  0
 31 34  1  0  0  0
 31 35  1  0  0  0
M  END
> <r_user_dG.exp>
-8.26

$$$$
jmc_28
                    3D
 Structure written by MMmdl.
 39 41  0  0  1  0            999 V2000
  -15.0209   18.6628  -36.4304 C   0  0  0  0  0  0                  
  -15.5021   18.3166  -37.6896 C   0  0  0  0  0  0                  
  -16.8526   18.0393  -37.8718 C   0  0  0  0  0  0                  
  -17.7400   18.0969  -36.7817 C   0  0  0  0  0  0                  
  -17.2447   18.4602  -35.5142 C   0  0  0  0  0  0                  
  -15.8925   18.7331  -35.3521 C   0  0  0  0  0  0                  
  -18.3221   18.5666  -34.1516 Cl  0  0  0  0  0  0                  
  -19.1819   17.7875  -36.9195 C   0  0  0  0  0  0                  
  -19.5904   16.7080  -36.5249 O   0  0  0  0  0  0                  
  -19.9896   18.7325  -37.4387 N   0  0  0  0  0  0                  
  -21.3775   18.7083  -37.6116 C   0  0  0  0  0  0                  
  -22.2656   17.7815  -37.0310 C   0  0  0  0  0  0                  
  -23.6346   17.9530  -37.2129 C   0  0  0  0  0  0                  
  -24.1086   18.9677  -37.9305 N   0  0  0  0  0  0                  
  -23.3067   19.8633  -38.5047 C   0  0  0  0  0  0                  
  -21.9260   19.7772  -38.3125 C   0  0  0  0  0  0                  
  -23.8704   20.9423  -39.1949 N   0  0  0  0  0  0                  
  -23.2955   21.6643  -40.1929 C   0  0  0  0  0  0                  
  -22.1788   21.4300  -40.6247 O   0  0  0  0  0  0                  
  -24.1067   22.8108  -40.7446 C   0  0  1  0  0  0                  
  -23.4058   23.9092  -41.5506 C   0  0  0  0  0  0                  
  -24.3211   22.9039  -42.2519 C   0  0  1  0  0  0                  
  -23.6751   21.8476  -43.0986 C   0  0  0  0  0  0                  
  -17.4297   17.6488  -39.4558 Cl  0  0  0  0  0  0                  
  -24.9261   23.1178  -40.1021 H   0  0  0  0  0  0                  
  -25.2817   23.2732  -42.6064 H   0  0  0  0  0  0                  
  -13.9707   18.8765  -36.2931 H   0  0  0  0  0  0                  
  -14.8253   18.2623  -38.5299 H   0  0  0  0  0  0                  
  -15.5207   19.0025  -34.3741 H   0  0  0  0  0  0                  
  -19.5999   19.6043  -37.7678 H   0  0  0  0  0  0                  
  -21.8803   16.9532  -36.4547 H   0  0  0  0  0  0                  
  -24.3301   17.2564  -36.7683 H   0  0  0  0  0  0                  
  -21.2828   20.5473  -38.7121 H   0  0  0  0  0  0                  
  -24.8026   21.2582  -38.9652 H   0  0  0  0  0  0                  
  -23.7156   24.8868  -41.1795 H   0  0  0  0  0  0                  
  -22.3252   23.8060  -41.4442 H   0  0  0  0  0  0                  
  -23.9061   22.0307  -44.1480 H   0  0  0  0  0  0                  
  -22.5950   21.8760  -42.9546 H   0  0  0  0  0  0                  
  -24.0540   20.8674  -42.8093 H   0  0  0  0  0  0                  
  1  2  1  0  0  0
  1  6  2  0  0  0
  1 27  1  0  0  0
  2  3  2  0  0  0
  2 28  1  0  0  0
  3  4  1  0  0  0
  3 24  1  0  0  0
  4  5  2  0  0  0
  4  8  1  0  0  0
  5  6  1  0  0  0
  5  7  1  0  0  0
  6 29  1  0  0  0
  8  9  2  0  0  0
  8 10  1  0  0  0
 10 11  1  0  0  0
 10 30  1  0  0  0
 11 12  1  0  0  0
 11 16  2  0  0  0
 12 13  2  0  0  0
 12 31  1  0  0  0
 13 14  1  0  0  0
 13 32  1  0  0  0
 14 15  2  0  0  0
 15 16  1  0  0  0
 15 17  1  0  0  0
 16 33  1  0  0  0
 17 18  1  0  0  0
 17 34  1  0  0  0
 18 19  2  0  0  0
 18 20  1  0  0  0
 20 21  1  0  0  0
 20 22  1  0  0  0
 20 25  1  0  0  0
 21 22  1  0  0  0
 21 35  1  0  0  0
 21 36  1  0  0  0
 22 23  1  0  0  0
 22 26  1  0  0  0
 23 37  1  0  0  0
 23 38  1  0  0  0
 23 39  1  0  0  0
M  END
> <r_user_dG.exp>
-10.98

$$$$
ejm_49
                    3D
 Structure written by MMmdl.
 39 41  0  0  1  0            999 V2000
  -15.0209   18.6628  -36.4304 C   0  0  0  0  0  0                  
  -15.5021   18.3166  -37.6896 C   0  0  0  0  0  0                  
  -16.8526   18.0393  -37.8718 C   0  0  0  0  0  0                  
  -17.7400   18.0969  -36.7817 C   0  0  0  0  0  0                  
  -17.2447   18.4602  -35.5142 C   0  0  0  0  0  0                  
  -15.8925   18.7331  -35.3521 C   0  0  0  0  0  0                  
  -18.3221   18.5666  -34.1516 Cl  0  0  0  0  0  0                  
  -19.1819   17.7875  -36.9195 C   0  0  0  0  0  0                  
  -19.5904   16.7080  -36.5249 O   0  0  0  0  0  0                  
  -19.9896   18.7325  -37.4387 N   0  0  0  0  0  0                  
  -21.3775   18.7083  -37.6116 C   0  0  0  0  0  0                  
  -22.2656   17.7815  -37.0310 C   0  0  0  0  0  0                  
  -23.6346   17.9530  -37.2129 C   0  0  0  0  0  0                  
  -24.1086   18.9677  -37.9305 N   0  0  0  0  0  0                  
  -23.3067   19.8633  -38.5047 C   0  0  0  0  0  0                  
  -21.9260   19.7772  -38.3125 C   0  0  0  0  0  0                  
  -23.8704   20.9423  -39.1949 N   0  0  0  0  0  0                  
  -23.2955   21.6643  -40.1929 C   0  0  0  0  0  0                  
  -22.1788   21.4300  -40.6247 O   0  0  0  0  0  0                  
  -17.4297   17.6488  -39.4558 Cl  0  0  0  0  0  0                  
  -13.9707   18.8765  -36.2931 H   0  0  0  0  0  0                  
  -14.8253   18.2623  -38.5299 H   0  0  0  0  0  0                  
  -15.5207   19.0025  -34.3741 H   0  0  0  0  0  0                  
  -19.5999   19.6043  -37.7678 H   0  0  0  0  0  0                  
  -21.8803   16.9532  -36.4547 H   0  0  0  0  0  0                  
  -24.3301   17.2564  -36.7683 H   0  0  0  0  0  0                  
  -21.2828   20.5473  -38.7121 H   0  0  0  0  0  0                  
  -24.8026   21.2582  -38.9652 H   0  0  0  0  0  0                  
  -25.5130   24.9613  -41.9301 C   0  0  0  0  0  0                  
  -26.1627   23.7478  -41.6507 C   0  0  0  0  0  0                  
  -25.4445   22.6799  -41.0880 C   0  0  0  0  0  0                  
  -24.0766   22.8256  -40.8048 C   0  0  0  0  0  0                  
  -23.4268   24.0391  -41.0842 C   0  0  0  0  0  0                  
  -24.1450   25.1070  -41.6469 C   0  0  0  0  0  0                  
  -26.0772   25.8002  -42.3721 H   0  0  0  0  0  0                  
  -27.2375   23.6334  -41.8732 H   0  0  0  0  0  0                  
  -25.9550   21.7267  -40.8685 H   0  0  0  0  0  0                  
  -22.3522   24.1534  -40.8617 H   0  0  0  0  0  0                  
  -23.6346   26.0602  -41.8664 H   0  0  0  0  0  0                  
  1  2  1  0  0  0
  1  6  2  0  0  0
  1 21  1  0  0  0
  2  3  2  0  0  0
  2 22  1  0  0  0
  3  4  1  0  0  0
  3 20  1  0  0  0
  4  5  2  0  0  0
  4  8  1  0  0  0
  5  6  1  0  0  0
  5  7  1  0  0  0
  6 23  1  0  0  0
  8  9  2  0  0  0
  8 10  1  0  0  0
 10 11  1  0  0  0
 10 24  1  0  0  0
 11 12  1  0  0  0
 11 16  2  0  0  0
 12 13  2  0  0  0
 12 25  1  0  0  0
 13 14  1  0  0  0
 13 26  1  0  0  0
 14 15  2  0  0  0
 15 16  1  0  0  0
 15 17  1  0  0  0
 16 27  1  0  0  0
 17 18  1  0  0  0
 17 28  1  0  0  0
 18 19  2  0  0  0
 18 32  1  0  0  0
 29 30  2  0  0  0
 29 34  1  0  0  0
 29 35  1  0  0  0
 30 31  1  0  0  0
 30 36  1  0  0  0
 31 32  2  0  0  0
 31 37  1  0  0  0
 32 33  1  0  0  0
 33 34  2  0  0  0
 33 38  1  0  0  0
 34 39  1  0  0  0
M  END
> <r_user_dG.exp>
-7.75

$$$$
ejm_45
                    3D
 Structure written by MMmdl.
 39 41  0  0  1  0            999 V2000
  -15.0209   18.6628  -36.4304 C   0  0  0  0  0  0                  
  -15.5021   18.3166  -37.6896 C   0  0  0  0  0  0                  
  -16.8526   18.0393  -37.8718 C   0  0  0  0  0  0                  
  -17.7400   18.0969  -36.7817 C   0  0  0  0  0  0                  
  -17.2447   18.4602  -35.5142 C   0  0  0  0  0  0                  
  -15.8925   18.7331  -35.3521 C   0  0  0  0  0  0                  
  -18.3221   18.5666  -34.1516 Cl  0  0  0  0  0  0                  
  -19.1819   17.7875  -36.9195 C   0  0  0  0  0  0                  
  -19.5904   16.7080  -36.5249 O   0  0  0  0  0  0                  
  -19.9896   18.7325  -37.4387 N   0  0  0  0  0  0                  
  -21.3775   18.7083  -37.6116 C   0  0  0  0  0  0                  
  -22.2656   17.7815  -37.0310 C   0  0  0  0  0  0                  
  -23.6346   17.9530  -37.2129 C   0  0  0  0  0  0                  
  -24.1086   18.9677  -37.9305 N   0  0  0  0  0  0                  
  -23.3067   19.8633  -38.5047 C   0  0  0  0  0  0                  
  -21.9260   19.7772  -38.3125 C   0  0  0  0  0  0                  
  -23.8704   20.9423  -39.1949 N   0  0  0  0  0  0                  
  -23.2955   21.6643  -40.1929 C   0  0  0  0  0  0                  
  -22.1788   21.4300  -40.6247 O   0  0  0  0  0  0                  
  -24.1067   22.8108  -40.7446 C   0  0  0  0  0  0                  
  -17.4297   17.6488  -39.4558 Cl  0  0  0  0  0  0                  
  -25.1617   22.5847  -40.8636 H   0  0  0  0  0  0                  
  -13.9707   18.8765  -36.2931 H   0  0  0  0  0  0                  
  -14.8253   18.2623  -38.5299 H   0  0  0  0  0  0                  
  -15.5207   19.0025  -34.3741 H   0  0  0  0  0  0                  
  -19.5999   19.6043  -37.7678 H   0  0  0  0  0  0                  
  -21.8803   16.9532  -36.4547 H   0  0  0  0  0  0                  
  -24.3301   17.2564  -36.7683 H   0  0  0  0  0  0                  
  -21.2828   20.5473  -38.7121 H   0  0  0  0  0  0                  
  -24.8026   21.2582  -38.9652 H   0  0  0  0  0  0                  
  -23.9940   23.6788  -40.0949 H   0  0  0  0  0  0                  
  -24.1207   24.0617  -42.4663 H   0  0  0  0  0  0                  
  -23.5786   23.2484  -42.0322 C   0  0  0  0  0  0                  
  -22.0881   23.1760  -42.2353 C   0  0  0  0  0  0                  
  -22.9922   22.1981  -42.9384 C   0  0  0  0  0  0                  
  -21.6428   23.9751  -42.8733 H   0  0  0  0  0  0                  
  -21.4981   22.7684  -41.3811 H   0  0  0  0  0  0                  
  -23.1333   22.3630  -44.0324 H   0  0  0  0  0  0                  
  -22.9886   21.1563  -42.5402 H   0  0  0  0  0  0                  
  1  2  1  0  0  0
  1  6  2  0  0  0
  1 23  1  0  0  0
  2  3  2  0  0  0
  2 24  1  0  0  0
  3  4  1  0  0  0
  3 21  1  0  0  0
  4  5  2  0  0  0
  4  8  1  0  0  0
  5  6  1  0  0  0
  5  7  1  0  0  0
  6 25  1  0  0  0
  8  9  2  0  0  0
  8 10  1  0  0  0
 10 11  1  0  0  0
 10 26  1  0  0  0
 11 12  1  0  0  0
 11 16  2  0  0  0
 12 13  2  0  0  0
 12 27  1  0  0  0
 13 14  1  0  0  0
 13 28  1  0  0  0
 14 15  2  0  0  0
 15 16  1  0  0  0
 15 17  1  0  0  0
 16 29  1  0  0  0
 17 18  1  0  0  0
 17 30  1  0  0  0
 18 19  2  0  0  0
 18 20  1  0  0  0
 20 22  1  0  0  0
 20 31  1  0  0  0
 20 33  1  0  0  0
 32 33  1  0  0  0
 33 34  1  0  0  0
 33 35  1  0  0  0
 34 35  1  0  0  0
 34 36  1  0  0  0
 34 37  1  0  0  0
 35 38  1  0  0  0
 35 39  1  0  0  0
M  END
> <r_user_dG.exp>
-9.56

$$$$
ejm_44
                    3D
 Structure written by MMmdl.
 41 42  0  0  1  0            999 V2000
  -15.0209   18.6628  -36.4304 C   0  0  0  0  0  0                  
  -15.5021   18.3166  -37.6896 C   0  0  0  0  0  0                  
  -16.8526   18.0393  -37.8718 C   0  0  0  0  0  0                  
  -17.7400   18.0969  -36.7817 C   0  0  0  0  0  0                  
  -17.2447   18.4602  -35.5142 C   0  0  0  0  0  0                  
  -15.8925   18.7331  -35.3521 C   0  0  0  0  0  0                  
  -18.3221   18.5666  -34.1516 Cl  0  0  0  0  0  0                  
  -19.1819   17.7875  -36.9195 C   0  0  0  0  0  0                  
  -19.5904   16.7080  -36.5249 O   0  0  0  0  0  0                  
  -19.9896   18.7325  -37.4387 N   0  0  0  0  0  0                  
  -21.3775   18.7083  -37.6116 C   0  0  0  0  0  0                  
  -22.2656   17.7815  -37.0310 C   0  0  0  0  0  0                  
  -23.6346   17.9530  -37.2129 C   0  0  0  0  0  0                  
  -24.1086   18.9677  -37.9305 N   0  0  0  0  0  0                  
  -23.3067   19.8633  -38.5047 C   0  0  0  0  0  0                  
  -21.9260   19.7772  -38.3125 C   0  0  0  0  0  0                  
  -23.8704   20.9423  -39.1949 N   0  0  0  0  0  0                  
  -23.2955   21.6643  -40.1929 C   0  0  0  0  0  0                  
  -22.1788   21.4300  -40.6247 O   0  0  0  0  0  0                  
  -24.1067   22.8108  -40.7446 C   0  0  0  0  0  0                  
  -17.4297   17.6488  -39.4558 Cl  0  0  0  0  0  0                  
  -25.5646   22.4985  -40.9090 C   0  0  0  0  0  0                  
  -13.9707   18.8765  -36.2931 H   0  0  0  0  0  0                  
  -14.8253   18.2623  -38.5299 H   0  0  0  0  0  0                  
  -15.5207   19.0025  -34.3741 H   0  0  0  0  0  0                  
  -19.5999   19.6043  -37.7678 H   0  0  0  0  0  0                  
  -21.8803   16.9532  -36.4547 H   0  0  0  0  0  0                  
  -24.3301   17.2564  -36.7683 H   0  0  0  0  0  0                  
  -21.2828   20.5473  -38.7121 H   0  0  0  0  0  0                  
  -24.8026   21.2582  -38.9652 H   0  0  0  0  0  0                  
  -23.5363   23.2334  -42.0659 C   0  0  0  0  0  0                  
  -23.9517   24.0053  -39.8505 C   0  0  0  0  0  0                  
  -24.1207   24.0617  -42.4663 H   0  0  0  0  0  0                  
  -22.5023   23.5508  -41.9311 H   0  0  0  0  0  0                  
  -23.5707   22.3952  -42.7619 H   0  0  0  0  0  0                  
  -26.0806   23.3709  -41.3098 H   0  0  0  0  0  0                  
  -25.6818   21.6602  -41.5959 H   0  0  0  0  0  0                  
  -25.9920   22.2368  -39.9412 H   0  0  0  0  0  0                  
  -24.5369   24.8349  -40.2471 H   0  0  0  0  0  0                  
  -24.3044   23.7585  -38.8491 H   0  0  0  0  0  0                  
  -22.9010   24.2917  -39.8048 H   0  0  0  0  0  0                  
  1  2  1  0  0  0
  1  6  2  0  0  0
  1 23  1  0  0  0
  2  3  2  0  0  0
  2 24  1  0  0  0
  3  4  1  0  0  0
  3 21  1  0  0  0
  4  5  2  0  0  0
  4  8  1  0  0  0
  5  6  1  0  0  0
  5  7  1  0  0  0
  6 25  1  0  0  0
  8  9  2  0  0  0
  8 10  1  0  0  0
 10 11  1  0  0  0
 10 26  1  0  0  0
 11 12  1  0  0  0
 11 16  2  0  0  0
 12 13  2  0  0  0
 12 27  1  0  0  0
 13 14  1  0  0  0
 13 28  1  0  0  0
 14 15  2  0  0  0
 15 16  1  0  0  0
 15 17  1  0  0  0
 16 29  1  0  0  0
 17 18  1  0  0  0
 17 30  1  0  0  0
 18 19  2  0  0  0
 18 20  1  0  0  0
 20 22  1  0  0  0
 20 31  1  0  0  0
 20 32  1  0  0  0
 22 36  1  0  0  0
 22 37  1  0  0  0
 22 38  1  0  0  0
 31 33  1  0  0  0
 31 34  1  0  0  0
 31 35  1  0  0  0
 32 39  1  0  0  0
 32 40  1  0  0  0
 32 41  1  0  0  0
M  END
> <r_user_dG.exp>
-7.42

$$$$
jmc_27
                    3D
 Structure written by MMmdl.
 36 38  0  0  1  0            999 V2000
  -15.0209   18.6628  -36.4304 C   0  0  0  0  0  0                  
  -15.5021   18.3166  -37.6896 C   0  0  0  0  0  0                  
  -16.8526   18.0393  -37.8718 C   0  0  0  0  0  0                  
  -17.7400   18.0969  -36.7817 C   0  0  0  0  0  0                  
  -17.2447   18.4602  -35.5142 C   0  0  0  0  0  0                  
  -15.8925   18.7331  -35.3521 C   0  0  0  0  0  0                  
  -18.3221   18.5666  -34.1516 Cl  0  0  0  0  0  0                  
  -19.1819   17.7875  -36.9195 C   0  0  0  0  0  0                  
  -19.5904   16.7080  -36.5249 O   0  0  0  0  0  0                  
  -19.9896   18.7325  -37.4387 N   0  0  0  0  0  0                  
  -21.3775   18.7083  -37.6116 C   0  0  0  0  0  0                  
  -22.2656   17.7815  -37.0310 C   0  0  0  0  0  0                  
  -23.6346   17.9530  -37.2129 C   0  0  0  0  0  0                  
  -24.1086   18.9677  -37.9305 N   0  0  0  0  0  0                  
  -23.3067   19.8633  -38.5047 C   0  0  0  0  0  0                  
  -21.9260   19.7772  -38.3125 C   0  0  0  0  0  0                  
  -23.8704   20.9423  -39.1949 N   0  0  0  0  0  0                  
  -23.2955   21.6643  -40.1929 C   0  0  0  0  0  0                  
  -22.1788   21.4300  -40.6247 O   0  0  0  0  0  0                  
  -24.1067   22.8108  -40.7446 C   0  0  1  0  0  0                  
  -23.4058   23.9092  -41.5506 C   0  0  0  0  0  0                  
  -24.3211   22.9039  -42.2519 C   0  0  1  0  0  0                  
  -23.5480   21.6398  -43.2651 Cl  0  0  0  0  0  0                  
  -17.4297   17.6488  -39.4558 Cl  0  0  0  0  0  0                  
  -24.9261   23.1178  -40.1021 H   0  0  0  0  0  0                  
  -25.2817   23.2732  -42.6064 H   0  0  0  0  0  0                  
  -13.9707   18.8765  -36.2931 H   0  0  0  0  0  0                  
  -14.8253   18.2623  -38.5299 H   0  0  0  0  0  0                  
  -15.5207   19.0025  -34.3741 H   0  0  0  0  0  0                  
  -19.5999   19.6043  -37.7678 H   0  0  0  0  0  0                  
  -21.8803   16.9532  -36.4547 H   0  0  0  0  0  0                  
  -24.3301   17.2564  -36.7683 H   0  0  0  0  0  0                  
  -21.2828   20.5473  -38.7121 H   0  0  0  0  0  0                  
  -24.8026   21.2582  -38.9652 H   0  0  0  0  0  0                  
  -23.7156   24.8868  -41.1795 H   0  0  0  0  0  0                  
  -22.3252   23.8060  -41.4442 H   0  0  0  0  0  0                  
  1  2  1  0  0  0
  1  6  2  0  0  0
  1 27  1  0  0  0
  2  3  2  0  0  0
  2 28  1  0  0  0
  3  4  1  0  0  0
  3 24  1  0  0  0
  4  5  2  0  0  0
  4  8  1  0  0  0
  5  6  1  0  0  0
  5  7  1  0  0  0
  6 29  1  0  0  0
  8  9  2  0  0  0
  8 10  1  0  0  0
 10 11  1  0  0  0
 10 30  1  0  0  0
 11 12  1  0  0  0
 11 16  2  0  0  0
 12 13  2  0  0  0
 12 31  1  0  0  0
 13 14  1  0  0  0
 13 32  1  0  0  0
 14 15  2  0  0  0
 15 16  1  0  0  0
 15 17  1  0  0  0
 16 33  1  0  0  0
 17 18  1  0  0  0
 17 34  1  0  0  0
 18 19  2  0  0  0
 18 20  1  0  0  0
 20 21  1  0  0  0
 20 22  1  0  0  0
 20 25  1  0  0  0
 21 22  1  0  0  0
 21 35  1  0  0  0
 21 36  1  0  0  0
 22 23  1  0  0  0
 22 26  1  0  0  0
M  END
> <i_m_stars>
2

> <r_user_dG.exp>
-11.28

$$$$
ejm_48
                    3D
 Structure written by MMmdl.
 42 44  0  0  1  0            999 V2000
  -15.0209   18.6628  -36.4304 C   0  0  0  0  0  0                  
  -15.5021   18.3166  -37.6896 C   0  0  0  0  0  0                  
  -16.8526   18.0393  -37.8718 C   0  0  0  0  0  0                  
  -17.7400   18.0969  -36.7817 C   0  0  0  0  0  0                  
  -17.2447   18.4602  -35.5142 C   0  0  0  0  0  0                  
  -15.8925   18.7331  -35.3521 C   0  0  0  0  0  0                  
  -18.3221   18.5666  -34.1516 Cl  0  0  0  0  0  0                  
  -19.1819   17.7875  -36.9195 C   0  0  0  0  0  0                  
  -19.5904   16.7080  -36.5249 O   0  0  0  0  0  0                  
  -19.9896   18.7325  -37.4387 N   0  0  0  0  0  0                  
  -21.3775   18.7083  -37.6116 C   0  0  0  0  0  0                  
  -22.2656   17.7815  -37.0310 C   0  0  0  0  0  0                  
  -23.6346   17.9530  -37.2129 C   0  0  0  0  0  0                  
  -24.1086   18.9677  -37.9305 N   0  0  0  0  0  0                  
  -23.3067   19.8633  -38.5047 C   0  0  0  0  0  0                  
  -21.9260   19.7772  -38.3125 C   0  0  0  0  0  0                  
  -23.8704   20.9423  -39.1949 N   0  0  0  0  0  0                  
  -23.2955   21.6643  -40.1929 C   0  0  0  0  0  0                  
  -22.1788   21.4300  -40.6247 O   0  0  0  0  0  0                  
  -17.4297   17.6488  -39.4558 Cl  0  0  0  0  0  0                  
  -13.9707   18.8765  -36.2931 H   0  0  0  0  0  0                  
  -14.8253   18.2623  -38.5299 H   0  0  0  0  0  0                  
  -15.5207   19.0025  -34.3741 H   0  0  0  0  0  0                  
  -19.5999   19.6043  -37.7678 H   0  0  0  0  0  0                  
  -21.8803   16.9532  -36.4547 H   0  0  0  0  0  0                  
  -24.3301   17.2564  -36.7683 H   0  0  0  0  0  0                  
  -21.2828   20.5473  -38.7121 H   0  0  0  0  0  0                  
  -24.8026   21.2582  -38.9652 H   0  0  0  0  0  0                  
  -24.9180   23.1321  -40.1328 H   0  0  0  0  0  0                  
  -24.0766   22.8256  -40.8048 C   0  0  0  0  0  0                  
  -23.1210   24.0030  -41.0400 C   0  0  0  0  0  0                  
  -22.6292   23.7960  -42.4741 C   0  0  0  0  0  0                  
  -23.9014   23.3493  -43.1980 C   0  0  0  0  0  0                  
  -24.5926   22.4147  -42.1958 C   0  0  0  0  0  0                  
  -22.2870   24.0433  -40.2985 H   0  0  0  0  0  0                  
  -23.6850   24.9657  -40.9791 H   0  0  0  0  0  0                  
  -22.1776   24.7167  -42.9162 H   0  0  0  0  0  0                  
  -21.8684   22.9785  -42.5013 H   0  0  0  0  0  0                  
  -24.5467   24.2409  -43.3902 H   0  0  0  0  0  0                  
  -23.6901   22.8586  -44.1787 H   0  0  0  0  0  0                  
  -24.3101   21.3552  -42.4093 H   0  0  0  0  0  0                  
  -25.7043   22.4869  -42.2723 H   0  0  0  0  0  0                  
  1  2  1  0  0  0
  1  6  2  0  0  0
  1 21  1  0  0  0
  2  3  2  0  0  0
  2 22  1  0  0  0
  3  4  1  0  0  0
  3 20  1  0  0  0
  4  5  2  0  0  0
  4  8  1  0  0  0
  5  6  1  0  0  0
  5  7  1  0  0  0
  6 23  1  0  0  0
  8  9  2  0  0  0
  8 10  1  0  0  0
 10 11  1  0  0  0
 10 24  1  0  0  0
 11 12  1  0  0  0
 11 16  2  0  0  0
 12 13  2  0  0  0
 12 25  1  0  0  0
 13 14  1  0  0  0
 13 26  1  0  0  0
 14 15  2  0  0  0
 15 16  1  0  0  0
 15 17  1  0  0  0
 16 27  1  0  0  0
 17 18  1  0  0  0
 17 28  1  0  0  0
 18 19  2  0  0  0
 18 30  1  0  0  0
 29 30  1  0  0  0
 30 31  1  0  0  0
 30 34  1  0  0  0
 31 32  1  0  0  0
 31 35  1  0  0  0
 31 36  1  0  0  0
 32 33  1  0  0  0
 32 37  1  0  0  0
 32 38  1  0  0  0
 33 34  1  0  0  0
 33 39  1  0  0  0
 33 40  1  0  0  0
 34 41  1  0  0  0
 34 42  1  0  0  0
M  END
> <r_user_dG.exp>
-9

$$$$
ejm_47
                    3D
 Structure written by MMmdl.
 39 41  0  0  1  0            999 V2000
  -15.0209   18.6628  -36.4304 C   0  0  0  0  0  0                  
  -15.5021   18.3166  -37.6896 C   0  0  0  0  0  0                  
  -16.8526   18.0393  -37.8718 C   0  0  0  0  0  0                  
  -17.7400   18.0969  -36.7817 C   0  0  0  0  0  0                  
  -17.2447   18.4602  -35.5142 C   0  0  0  0  0  0                  
  -15.8925   18.7331  -35.3521 C   0  0  0  0  0  0                  
  -18.3221   18.5666  -34.1516 Cl  0  0  0  0  0  0                  
  -19.1819   17.7875  -36.9195 C   0  0  0  0  0  0                  
  -19.5904   16.7080  -36.5249 O   0  0  0  0  0  0                  
  -19.9896   18.7325  -37.4387 N   0  0  0  0  0  0                  
  -21.3775   18.7083  -37.6116 C   0  0  0  0  0  0                  
  -22.2656   17.7815  -37.0310 C   0  0  0  0  0  0                  
  -23.6346   17.9530  -37.2129 C   0  0  0  0  0  0                  
  -24.1086   18.9677  -37.9305 N   0  0  0  0  0  0                  
  -23.3067   19.8633  -38.5047 C   0  0  0  0  0  0                  
  -21.9260   19.7772  -38.3125 C   0  0  0  0  0  0                  
  -23.8704   20.9423  -39.1949 N   0  0  0  0  0  0                  
  -23.2955   21.6643  -40.1929 C   0  0  0  0  0  0                  
  -22.1788   21.4300  -40.6247 O   0  0  0  0  0  0                  
  -17.4297   17.6488  -39.4558 Cl  0  0  0  0  0  0                  
  -13.9707   18.8765  -36.2931 H   0  0  0  0  0  0                  
  -14.8253   18.2623  -38.5299 H   0  0  0  0  0  0                  
  -15.5207   19.0025  -34.3741 H   0  0  0  0  0  0                  
  -19.5999   19.6043  -37.7678 H   0  0  0  0  0  0                  
  -21.8803   16.9532  -36.4547 H   0  0  0  0  0  0                  
  -24.3301   17.2564  -36.7683 H   0  0  0  0  0  0                  
  -21.2828   20.5473  -38.7121 H   0  0  0  0  0  0                  
  -24.8026   21.2582  -38.9652 H   0  0  0  0  0  0                  
  -24.0908   22.8113  -40.7660 C   0  0  0  0  0  0                  
  -23.1960   23.9610  -41.2429 C   0  0  0  0  0  0                  
  -23.2311   23.3455  -42.6464 C   0  0  0  0  0  0                  
  -24.4876   22.5740  -42.2274 C   0  0  0  0  0  0                  
  -23.7138   24.9500  -41.1983 H   0  0  0  0  0  0                  
  -22.1849   23.9934  -40.7714 H   0  0  0  0  0  0                  
  -23.3861   24.0779  -43.4741 H   0  0  0  0  0  0                  
  -22.3611   22.6712  -42.8374 H   0  0  0  0  0  0                  
  -25.4282   23.1087  -42.5056 H   0  0  0  0  0  0                  
  -24.5043   21.5025  -42.5394 H   0  0  0  0  0  0                  
  -24.9180   23.1321  -40.1328 H   0  0  0  0  0  0                  
  1  2  1  0  0  0
  1  6  2  0  0  0
  1 21  1  0  0  0
  2  3  2  0  0  0
  2 22  1  0  0  0
  3  4  1  0  0  0
  3 20  1  0  0  0
  4  5  2  0  0  0
  4  8  1  0  0  0
  5  6  1  0  0  0
  5  7  1  0  0  0
  6 23  1  0  0  0
  8  9  2  0  0  0
  8 10  1  0  0  0
 10 11  1  0  0  0
 10 24  1  0  0  0
 11 12  1  0  0  0
 11 16  2  0  0  0
 12 13  2  0  0  0
 12 25  1  0  0  0
 13 14  1  0  0  0
 13 26  1  0  0  0
 14 15  2  0  0  0
 15 16  1  0  0  0
 15 17  1  0  0  0
 16 27  1  0  0  0
 17 18  1  0  0  0
 17 28  1  0  0  0
 18 19  2  0  0  0
 18 29  1  0  0  0
 29 30  1  0  0  0
 29 32  1  0  0  0
 29 39  1  0  0  0
 30 31  1  0  0  0
 30 33  1  0  0  0
 30 34  1  0  0  0
 31 32  1  0  0  0
 31 35  1  0  0  0
 31 36  1  0  0  0
 32 37  1  0  0  0
 32 38  1  0  0  0
M  END
> <r_user_dG.exp>
-9.7

$$$$
jmc_23
                    3D
 Structure written by MMmdl.
 36 38  0  0  1  0            999 V2000
  -15.0209   18.6628  -36.4304 C   0  0  0  0  0  0                  
  -15.5021   18.3166  -37.6896 C   0  0  0  0  0  0                  
  -16.8526   18.0393  -37.8718 C   0  0  0  0  0  0                  
  -17.7400   18.0969  -36.7817 C   0  0  0  0  0  0                  
  -17.2447   18.4602  -35.5142 C   0  0  0  0  0  0                  
  -15.8925   18.7331  -35.3521 C   0  0  0  0  0  0                  
  -18.3221   18.5666  -34.1516 Cl  0  0  0  0  0  0                  
  -19.1819   17.7875  -36.9195 C   0  0  0  0  0  0                  
  -19.5904   16.7080  -36.5249 O   0  0  0  0  0  0                  
  -19.9896   18.7325  -37.4387 N   0  0  0  0  0  0                  
  -21.3775   18.7083  -37.6116 C   0  0  0  0  0  0                  
  -22.2656   17.7815  -37.0310 C   0  0  0  0  0  0                  
  -23.6346   17.9530  -37.2129 C   0  0  0  0  0  0                  
  -24.1086   18.9677  -37.9305 N   0  0  0  0  0  0                  
  -23.3067   19.8633  -38.5047 C   0  0  0  0  0  0                  
  -21.9260   19.7772  -38.3125 C   0  0  0  0  0  0                  
  -23.8704   20.9423  -39.1949 N   0  0  0  0  0  0                  
  -23.2955   21.6643  -40.1929 C   0  0  0  0  0  0                  
  -22.1788   21.4300  -40.6247 O   0  0  0  0  0  0                  
  -24.1067   22.8108  -40.7446 C   0  0  1  0  0  0                  
  -23.4058   23.9092  -41.5506 C   0  0  0  0  0  0                  
  -24.3211   22.9039  -42.2519 C   0  0  1  0  0  0                  
  -23.7201   21.9212  -43.0396 F   0  0  0  0  0  0                  
  -17.4297   17.6488  -39.4558 Cl  0  0  0  0  0  0                  
  -24.9261   23.1178  -40.1021 H   0  0  0  0  0  0                  
  -25.2817   23.2732  -42.6064 H   0  0  0  0  0  0                  
  -13.9707   18.8765  -36.2931 H   0  0  0  0  0  0                  
  -14.8253   18.2623  -38.5299 H   0  0  0  0  0  0                  
  -15.5207   19.0025  -34.3741 H   0  0  0  0  0  0                  
  -19.5999   19.6043  -37.7678 H   0  0  0  0  0  0                  
  -21.8803   16.9532  -36.4547 H   0  0  0  0  0  0                  
  -24.3301   17.2564  -36.7683 H   0  0  0  0  0  0                  
  -21.2828   20.5473  -38.7121 H   0  0  0  0  0  0                  
  -24.8026   21.2582  -38.9652 H   0  0  0  0  0  0                  
  -23.7156   24.8868  -41.1795 H   0  0  0  0  0  0                  
  -22.3252   23.8060  -41.4442 H   0  0  0  0  0  0                  
  1  2  1  0  0  0
  1  6  2  0  0  0
  1 27  1  0  0  0
  2  3  2  0  0  0
  2 28  1  0  0  0
  3  4  1  0  0  0
  3 24  1  0  0  0
  4  5  2  0  0  0
  4  8  1  0  0  0
  5  6  1  0  0  0
  5  7  1  0  0  0
  6 29  1  0  0  0
  8  9  2  0  0  0
  8 10  1  0  0  0
 10 11  1  0  0  0
 10 30  1  0  0  0
 11 12  1  0  0  0
 11 16  2  0  0  0
 12 13  2  0  0  0
 12 31  1  0  0  0
 13 14  1  0  0  0
 13 32  1  0  0  0
 14 15  2  0  0  0
 15 16  1  0  0  0
 15 17  1  0  0  0
 16 33  1  0  0  0
 17 18  1  0  0  0
 17 34  1  0  0  0
 18 19  2  0  0  0
 18 20  1  0  0  0
 20 21  1  0  0  0
 20 22  1  0  0  0
 20 25  1  0  0  0
 21 22  1  0  0  0
 21 35  1  0  0  0
 21 36  1  0  0  0
 22 23  1  0  0  0
 22 26  1  0  0  0
M  END
> <r_user_dG.exp>
-11.7

$$$$
ejm_42
                    3D
 Structure written by MMmdl.
 35 36  0  0  1  0            999 V2000
  -15.0209   18.6628  -36.4304 C   0  0  0  0  0  0                  
  -15.5021   18.3166  -37.6896 C   0  0  0  0  0  0                  
  -16.8526   18.0393  -37.8718 C   0  0  0  0  0  0                  
  -17.7400   18.0969  -36.7817 C   0  0  0  0  0  0                  
  -17.2447   18.4602  -35.5142 C   0  0  0  0  0  0                  
  -15.8925   18.7331  -35.3521 C   0  0  0  0  0  0                  
  -18.3221   18.5666  -34.1516 Cl  0  0  0  0  0  0                  
  -19.1819   17.7875  -36.9195 C   0  0  0  0  0  0                  
  -19.5904   16.7080  -36.5249 O   0  0  0  0  0  0                  
  -19.9896   18.7325  -37.4387 N   0  0  0  0  0  0                  
  -21.3775   18.7083  -37.6116 C   0  0  0  0  0  0                  
  -22.2656   17.7815  -37.0310 C   0  0  0  0  0  0                  
  -23.6346   17.9530  -37.2129 C   0  0  0  0  0  0                  
  -24.1086   18.9677  -37.9305 N   0  0  0  0  0  0                  
  -23.3067   19.8633  -38.5047 C   0  0  0  0  0  0                  
  -21.9260   19.7772  -38.3125 C   0  0  0  0  0  0                  
  -23.8704   20.9423  -39.1949 N   0  0  0  0  0  0                  
  -23.2955   21.6643  -40.1929 C   0  0  0  0  0  0                  
  -22.1788   21.4300  -40.6247 O   0  0  0  0  0  0                  
  -24.1067   22.8108  -40.7446 C   0  0  0  0  0  0                  
  -17.4297   17.6488  -39.4558 Cl  0  0  0  0  0  0                  
  -25.1617   22.5847  -40.8636 H   0  0  0  0  0  0                  
  -13.9707   18.8765  -36.2931 H   0  0  0  0  0  0                  
  -14.8253   18.2623  -38.5299 H   0  0  0  0  0  0                  
  -15.5207   19.0025  -34.3741 H   0  0  0  0  0  0                  
  -19.5999   19.6043  -37.7678 H   0  0  0  0  0  0                  
  -21.8803   16.9532  -36.4547 H   0  0  0  0  0  0                  
  -24.3301   17.2564  -36.7683 H   0  0  0  0  0  0                  
  -21.2828   20.5473  -38.7121 H   0  0  0  0  0  0                  
  -24.8026   21.2582  -38.9652 H   0  0  0  0  0  0                  
  -23.5363   23.2334  -42.0659 C   0  0  0  0  0  0                  
  -23.9940   23.6788  -40.0949 H   0  0  0  0  0  0                  
  -24.1207   24.0617  -42.4663 H   0  0  0  0  0  0                  
  -22.5023   23.5508  -41.9311 H   0  0  0  0  0  0                  
  -23.5707   22.3952  -42.7619 H   0  0  0  0  0  0                  
  1  2  1  0  0  0
  1  6  2  0  0  0
  1 23  1  0  0  0
  2  3  2  0  0  0
  2 24  1  0  0  0
  3  4  1  0  0  0
  3 21  1  0  0  0
  4  5  2  0  0  0
  4  8  1  0  0  0
  5  6  1  0  0  0
  5  7  1  0  0  0
  6 25  1  0  0  0
  8  9  2  0  0  0
  8 10  1  0  0  0
 10 11  1  0  0  0
 10 26  1  0  0  0
 11 12  1  0  0  0
 11 16  2  0  0  0
 12 13  2  0  0  0
 12 27  1  0  0  0
 13 14  1  0  0  0
 13 28  1  0  0  0
 14 15  2  0  0  0
 15 16  1  0  0  0
 15 17  1  0  0  0
 16 29  1  0  0  0
 17 18  1  0  0  0
 17 30  1  0  0  0
 18 19  2  0  0  0
 18 20  1  0  0  0
 20 22  1  0  0  0
 20 31  1  0  0  0
 20 32  1  0  0  0
 31 33  1  0  0  0
 31 34  1  0  0  0
 31 35  1  0  0  0
M  END
> <r_user_dG.exp>
-9.78

$$$$
ejm_54
                    3D
 Structure written by MMmdl.
 37 38  0  0  1  0            999 V2000
  -15.0209   18.6628  -36.4304 C   0  0  0  0  0  0                  
  -15.5021   18.3166  -37.6896 C   0  0  0  0  0  0                  
  -16.8526   18.0393  -37.8718 C   0  0  0  0  0  0                  
  -17.7400   18.0969  -36.7817 C   0  0  0  0  0  0                  
  -17.2447   18.4602  -35.5142 C   0  0  0  0  0  0                  
  -15.8925   18.7331  -35.3521 C   0  0  0  0  0  0                  
  -18.3221   18.5666  -34.1516 Cl  0  0  0  0  0  0                  
  -19.1819   17.7875  -36.9195 C   0  0  0  0  0  0                  
  -19.5904   16.7080  -36.5249 O   0  0  0  0  0  0                  
  -19.9896   18.7325  -37.4387 N   0  0  0  0  0  0                  
  -21.3775   18.7083  -37.6116 C   0  0  0  0  0  0                  
  -22.2656   17.7815  -37.0310 C   0  0  0  0  0  0                  
  -23.6346   17.9530  -37.2129 C   0  0  0  0  0  0                  
  -24.1086   18.9677  -37.9305 N   0  0  0  0  0  0                  
  -23.3067   19.8633  -38.5047 C   0  0  0  0  0  0                  
  -21.9260   19.7772  -38.3125 C   0  0  0  0  0  0                  
  -23.8704   20.9423  -39.1949 N   0  0  0  0  0  0                  
  -23.2955   21.6643  -40.1929 C   0  0  0  0  0  0                  
  -22.1788   21.4300  -40.6247 O   0  0  0  0  0  0                  
  -17.4297   17.6488  -39.4558 Cl  0  0  0  0  0  0                  
  -13.9707   18.8765  -36.2931 H   0  0  0  0  0  0                  
  -14.8253   18.2623  -38.5299 H   0  0  0  0  0  0                  
  -15.5207   19.0025  -34.3741 H   0  0  0  0  0  0                  
  -19.5999   19.6043  -37.7678 H   0  0  0  0  0  0                  
  -21.8803   16.9532  -36.4547 H   0  0  0  0  0  0                  
  -24.3301   17.2564  -36.7683 H   0  0  0  0  0  0                  
  -21.2828   20.5473  -38.7121 H   0  0  0  0  0  0                  
  -24.8026   21.2582  -38.9652 H   0  0  0  0  0  0                  
  -23.6390   23.3280  -42.0653 C   0  0  0  0  0  0                  
  -24.4188   23.9463  -42.5097 H   0  0  0  0  0  0                  
  -22.7428   23.9292  -41.9115 H   0  0  0  0  0  0                  
  -23.3224   22.1861  -42.9851 C   0  0  0  0  0  0                  
  -24.0431   22.7777  -40.7801 N   0  0  0  0  0  0                  
  -24.8393   23.1639  -40.2933 H   0  0  0  0  0  0                  
  -22.5425   21.5671  -42.5416 H   0  0  0  0  0  0                  
  -24.2182   21.5850  -43.1406 H   0  0  0  0  0  0                  
  -22.9761   22.5754  -43.9425 H   0  0  0  0  0  0                  
  1  2  1  0  0  0
  1  6  2  0  0  0
  1 21  1  0  0  0
  2  3  2  0  0  0
  2 22  1  0  0  0
  3  4  1  0  0  0
  3 20  1  0  0  0
  4  5  2  0  0  0
  4  8  1  0  0  0
  5  6  1  0  0  0
  5  7  1  0  0  0
  6 23  1  0  0  0
  8  9  2  0  0  0
  8 10  1  0  0  0
 10 11  1  0  0  0
 10 24  1  0  0  0
 11 12  1  0  0  0
 11 16  2  0  0  0
 12 13  2  0  0  0
 12 25  1  0  0  0
 13 14  1  0  0  0
 13 26  1  0  0  0
 14 15  2  0  0  0
 15 16  1  0  0  0
 15 17  1  0  0  0
 16 27  1  0  0  0
 17 18  1  0  0  0
 17 28  1  0  0  0
 18 19  2  0  0  0
 18 33  1  0  0  0
 29 30  1  0  0  0
 29 31  1  0  0  0
 29 32  1  0  0  0
 29 33  1  0  0  0
 32 35  1  0  0  0
 32 36  1  0  0  0
 32 37  1  0  0  0
 33 34  1  0  0  0
M  END
> <r_user_dG.exp>
-10.53

$$$$
