ejm_31
                    3D
 Structure written by MMmdl.
 32 33  0  0  1  0            999 V2000
  -23.2734   15.0306  -25.3327 C   0  0  0  0  0  0                  
  -23.7545   14.6844  -26.5920 C   0  0  0  0  0  0                  
  -25.1050   14.4070  -26.7742 C   0  0  0  0  0  0                  
  -25.9924   14.4647  -25.6841 C   0  0  0  0  0  0                  
  -25.4972   14.8280  -24.4165 C   0  0  0  0  0  0                  
  -24.1449   15.1009  -24.2544 C   0  0  0  0  0  0                  
  -26.5745   14.9344  -23.0539 Cl  0  0  0  0  0  0                  
  -27.4344   14.1553  -25.8219 C   0  0  0  0  0  0                  
  -27.8428   13.0758  -25.4273 O   0  0  0  0  0  0                  
  -28.2420   15.1003  -26.3410 N   0  0  0  0  0  0                  
  -29.6300   15.0761  -26.5139 C   0  0  0  0  0  0                  
  -30.5180   14.1493  -25.9334 C   0  0  0  0  0  0                  
  -31.8870   14.3208  -26.1153 C   0  0  0  0  0  0                  
  -32.3611   15.3355  -26.8329 N   0  0  0  0  0  0                  
  -31.5591   16.2311  -27.4071 C   0  0  0  0  0  0                  
  -30.1784   16.1449  -27.2149 C   0  0  0  0  0  0                  
  -32.1228   17.3101  -28.0973 N   0  0  0  0  0  0                  
  -31.5479   18.0321  -29.0952 C   0  0  0  0  0  0                  
  -30.4312   17.7977  -29.5271 O   0  0  0  0  0  0                  
  -32.3591   19.1786  -29.6469 C   0  0  0  0  0  0                  
  -25.6821   14.0165  -28.3581 Cl  0  0  0  0  0  0                  
  -33.1786   19.4855  -29.0044 H   0  0  0  0  0  0                  
  -22.2231   15.2443  -25.1955 H   0  0  0  0  0  0                  
  -23.0777   14.6301  -27.4323 H   0  0  0  0  0  0                  
  -23.7732   15.3703  -23.2765 H   0  0  0  0  0  0                  
  -27.8523   15.9721  -26.6701 H   0  0  0  0  0  0                  
  -30.1327   13.3210  -25.3571 H   0  0  0  0  0  0                  
  -32.5825   13.6242  -25.6707 H   0  0  0  0  0  0                  
  -29.5352   16.9151  -27.6145 H   0  0  0  0  0  0                  
  -33.0550   17.6260  -27.8676 H   0  0  0  0  0  0                  
  -32.7507   18.9059  -30.6269 H   0  0  0  0  0  0                  
  -31.7038   20.0304  -29.8289 H   0  0  0  0  0  0                  
  1  2  1  0  0  0
  1  6  2  0  0  0
  1 23  1  0  0  0
  2  3  2  0  0  0
  2 24  1  0  0  0
  3  4  1  0  0  0
  3 21  1  0  0  0
  4  5  2  0  0  0
  4  8  1  0  0  0
  5  6  1  0  0  0
  5  7  1  0  0  0
  6 25  1  0  0  0
  8  9  2  0  0  0
  8 10  1  0  0  0
 10 11  1  0  0  0
 10 26  1  0  0  0
 11 12  1  0  0  0
 11 16  2  0  0  0
 12 13  2  0  0  0
 12 27  1  0  0  0
 13 14  1  0  0  0
 13 28  1  0  0  0
 14 15  2  0  0  0
 15 16  1  0  0  0
 15 17  1  0  0  0
 16 29  1  0  0  0
 17 18  1  0  0  0
 17 30  1  0  0  0
 18 19  2  0  0  0
 18 20  1  0  0  0
 20 22  1  0  0  0
 20 31  1  0  0  0
 20 32  1  0  0  0
M  END
> <r_user_dG.exp>
-9.54

$$$$
jmc_30
                    3D
 Structure written by MMmdl.
 37 39  0  0  1  0            999 V2000
  -23.2734   15.0306  -25.3327 C   0  0  0  0  0  0                  
  -23.7545   14.6844  -26.5920 C   0  0  0  0  0  0                  
  -25.1050   14.4070  -26.7742 C   0  0  0  0  0  0                  
  -25.9924   14.4647  -25.6841 C   0  0  0  0  0  0                  
  -25.4972   14.8280  -24.4165 C   0  0  0  0  0  0                  
  -24.1449   15.1009  -24.2544 C   0  0  0  0  0  0                  
  -26.5745   14.9344  -23.0539 Cl  0  0  0  0  0  0                  
  -27.4344   14.1553  -25.8219 C   0  0  0  0  0  0                  
  -27.8428   13.0758  -25.4273 O   0  0  0  0  0  0                  
  -28.2420   15.1003  -26.3410 N   0  0  0  0  0  0                  
  -29.6300   15.0761  -26.5139 C   0  0  0  0  0  0                  
  -30.5180   14.1493  -25.9334 C   0  0  0  0  0  0                  
  -31.8870   14.3208  -26.1153 C   0  0  0  0  0  0                  
  -32.3611   15.3355  -26.8329 N   0  0  0  0  0  0                  
  -31.5591   16.2311  -27.4071 C   0  0  0  0  0  0                  
  -30.1784   16.1449  -27.2149 C   0  0  0  0  0  0                  
  -32.1228   17.3101  -28.0973 N   0  0  0  0  0  0                  
  -31.5479   18.0321  -29.0952 C   0  0  0  0  0  0                  
  -30.4312   17.7977  -29.5271 O   0  0  0  0  0  0                  
  -32.3591   19.1786  -29.6469 C   0  0  1  0  0  0                  
  -31.6582   20.2770  -30.4530 C   0  0  0  0  0  0                  
  -32.5735   19.2716  -31.1543 C   0  0  1  0  0  0                  
  -31.9275   18.2153  -32.0009 C   0  0  0  0  0  0                  
  -25.6821   14.0165  -28.3581 Cl  0  0  0  0  0  0                  
  -33.1786   19.4855  -29.0044 H   0  0  0  0  0  0                  
  -33.5342   19.6410  -31.5087 H   0  0  0  0  0  0                  
  -22.2231   15.2443  -25.1955 H   0  0  0  0  0  0                  
  -23.0777   14.6301  -27.4323 H   0  0  0  0  0  0                  
  -23.7732   15.3703  -23.2765 H   0  0  0  0  0  0                  
  -27.8523   15.9721  -26.6701 H   0  0  0  0  0  0                  
  -30.1327   13.3210  -25.3571 H   0  0  0  0  0  0                  
  -32.5825   13.6242  -25.6707 H   0  0  0  0  0  0                  
  -29.5352   16.9151  -27.6145 H   0  0  0  0  0  0                  
  -33.0550   17.6260  -27.8676 H   0  0  0  0  0  0                  
  -31.9680   21.2546  -30.0819 H   0  0  0  0  0  0                  
  -30.5776   20.1738  -30.3465 H   0  0  0  0  0  0                  
  -31.2940   17.1794  -32.8313 N   0  0  0  0  0  0                  
  1  2  1  0  0  0
  1  6  2  0  0  0
  1 27  1  0  0  0
  2  3  2  0  0  0
  2 28  1  0  0  0
  3  4  1  0  0  0
  3 24  1  0  0  0
  4  5  2  0  0  0
  4  8  1  0  0  0
  5  6  1  0  0  0
  5  7  1  0  0  0
  6 29  1  0  0  0
  8  9  2  0  0  0
  8 10  1  0  0  0
 10 11  1  0  0  0
 10 30  1  0  0  0
 11 12  1  0  0  0
 11 16  2  0  0  0
 12 13  2  0  0  0
 12 31  1  0  0  0
 13 14  1  0  0  0
 13 32  1  0  0  0
 14 15  2  0  0  0
 15 16  1  0  0  0
 15 17  1  0  0  0
 16 33  1  0  0  0
 17 18  1  0  0  0
 17 34  1  0  0  0
 18 19  2  0  0  0
 18 20  1  0  0  0
 20 21  1  0  0  0
 20 22  1  0  0  0
 20 25  1  0  0  0
 21 22  1  0  0  0
 21 35  1  0  0  0
 21 36  1  0  0  0
 22 23  1  0  0  0
 22 26  1  0  0  0
 23 37  3  0  0  0
M  END
> <r_user_dG.exp>
-10.94

$$$$
ejm_50
                    3D
 Structure written by MMmdl.
 33 34  0  0  1  0            999 V2000
  -23.2734   15.0306  -25.3327 C   0  0  0  0  0  0                  
  -23.7545   14.6844  -26.5920 C   0  0  0  0  0  0                  
  -25.1050   14.4070  -26.7742 C   0  0  0  0  0  0                  
  -25.9924   14.4647  -25.6841 C   0  0  0  0  0  0                  
  -25.4972   14.8280  -24.4165 C   0  0  0  0  0  0                  
  -24.1449   15.1009  -24.2544 C   0  0  0  0  0  0                  
  -26.5745   14.9344  -23.0539 Cl  0  0  0  0  0  0                  
  -27.4344   14.1553  -25.8219 C   0  0  0  0  0  0                  
  -27.8428   13.0758  -25.4273 O   0  0  0  0  0  0                  
  -28.2420   15.1003  -26.3410 N   0  0  0  0  0  0                  
  -29.6300   15.0761  -26.5139 C   0  0  0  0  0  0                  
  -30.5180   14.1493  -25.9334 C   0  0  0  0  0  0                  
  -31.8870   14.3208  -26.1153 C   0  0  0  0  0  0                  
  -32.3611   15.3355  -26.8329 N   0  0  0  0  0  0                  
  -31.5591   16.2311  -27.4071 C   0  0  0  0  0  0                  
  -30.1784   16.1449  -27.2149 C   0  0  0  0  0  0                  
  -32.1228   17.3101  -28.0973 N   0  0  0  0  0  0                  
  -31.5479   18.0321  -29.0952 C   0  0  0  0  0  0                  
  -30.4312   17.7977  -29.5271 O   0  0  0  0  0  0                  
  -32.3591   19.1786  -29.6469 C   0  0  0  0  0  0                  
  -25.6821   14.0165  -28.3581 Cl  0  0  0  0  0  0                  
  -33.4141   18.9525  -29.7659 H   0  0  0  0  0  0                  
  -22.2231   15.2443  -25.1955 H   0  0  0  0  0  0                  
  -23.0777   14.6301  -27.4323 H   0  0  0  0  0  0                  
  -23.7732   15.3703  -23.2765 H   0  0  0  0  0  0                  
  -27.8523   15.9721  -26.6701 H   0  0  0  0  0  0                  
  -30.1327   13.3210  -25.3571 H   0  0  0  0  0  0                  
  -32.5825   13.6242  -25.6707 H   0  0  0  0  0  0                  
  -29.5352   16.9151  -27.6145 H   0  0  0  0  0  0                  
  -33.0550   17.6260  -27.8676 H   0  0  0  0  0  0                  
  -32.2464   20.0466  -28.9973 H   0  0  0  0  0  0                  
  -32.3731   20.4295  -31.3687 H   0  0  0  0  0  0                  
  -31.8025   19.6378  -31.0014 O   0  0  0  0  0  0                  
  1  2  1  0  0  0
  1  6  2  0  0  0
  1 23  1  0  0  0
  2  3  2  0  0  0
  2 24  1  0  0  0
  3  4  1  0  0  0
  3 21  1  0  0  0
  4  5  2  0  0  0
  4  8  1  0  0  0
  5  6  1  0  0  0
  5  7  1  0  0  0
  6 25  1  0  0  0
  8  9  2  0  0  0
  8 10  1  0  0  0
 10 11  1  0  0  0
 10 26  1  0  0  0
 11 12  1  0  0  0
 11 16  2  0  0  0
 12 13  2  0  0  0
 12 27  1  0  0  0
 13 14  1  0  0  0
 13 28  1  0  0  0
 14 15  2  0  0  0
 15 16  1  0  0  0
 15 17  1  0  0  0
 16 29  1  0  0  0
 17 18  1  0  0  0
 17 30  1  0  0  0
 18 19  2  0  0  0
 18 20  1  0  0  0
 20 22  1  0  0  0
 20 31  1  0  0  0
 20 33  1  0  0  0
 32 33  1  0  0  0
M  END
> <r_user_dG.exp>
-8.98

$$$$
ejm_46
                    3D
 Structure written by MMmdl.
 36 38  0  0  1  0            999 V2000
  -23.2734   15.0306  -25.3327 C   0  0  0  0  0  0                  
  -23.7545   14.6844  -26.5920 C   0  0  0  0  0  0                  
  -25.1050   14.4070  -26.7742 C   0  0  0  0  0  0                  
  -25.9924   14.4647  -25.6841 C   0  0  0  0  0  0                  
  -25.4972   14.8280  -24.4165 C   0  0  0  0  0  0                  
  -24.1449   15.1009  -24.2544 C   0  0  0  0  0  0                  
  -26.5745   14.9344  -23.0539 Cl  0  0  0  0  0  0                  
  -27.4344   14.1553  -25.8219 C   0  0  0  0  0  0                  
  -27.8428   13.0758  -25.4273 O   0  0  0  0  0  0                  
  -28.2420   15.1003  -26.3410 N   0  0  0  0  0  0                  
  -29.6300   15.0761  -26.5139 C   0  0  0  0  0  0                  
  -30.5180   14.1493  -25.9334 C   0  0  0  0  0  0                  
  -31.8870   14.3208  -26.1153 C   0  0  0  0  0  0                  
  -32.3611   15.3355  -26.8329 N   0  0  0  0  0  0                  
  -31.5591   16.2311  -27.4071 C   0  0  0  0  0  0                  
  -30.1784   16.1449  -27.2149 C   0  0  0  0  0  0                  
  -32.1228   17.3101  -28.0973 N   0  0  0  0  0  0                  
  -31.5479   18.0321  -29.0952 C   0  0  0  0  0  0                  
  -30.4312   17.7977  -29.5271 O   0  0  0  0  0  0                  
  -32.3591   19.1786  -29.6469 C   0  0  0  0  0  0                  
  -31.6582   20.2770  -30.4530 C   0  0  0  0  0  0                  
  -32.5735   19.2716  -31.1543 C   0  0  0  0  0  0                  
  -32.1041   18.5041  -31.7696 H   0  0  0  0  0  0                  
  -25.6821   14.0165  -28.3581 Cl  0  0  0  0  0  0                  
  -33.1786   19.4855  -29.0044 H   0  0  0  0  0  0                  
  -33.5342   19.6410  -31.5087 H   0  0  0  0  0  0                  
  -22.2231   15.2443  -25.1955 H   0  0  0  0  0  0                  
  -23.0777   14.6301  -27.4323 H   0  0  0  0  0  0                  
  -23.7732   15.3703  -23.2765 H   0  0  0  0  0  0                  
  -27.8523   15.9721  -26.6701 H   0  0  0  0  0  0                  
  -30.1327   13.3210  -25.3571 H   0  0  0  0  0  0                  
  -32.5825   13.6242  -25.6707 H   0  0  0  0  0  0                  
  -29.5352   16.9151  -27.6145 H   0  0  0  0  0  0                  
  -33.0550   17.6260  -27.8676 H   0  0  0  0  0  0                  
  -31.9680   21.2546  -30.0819 H   0  0  0  0  0  0                  
  -30.5776   20.1738  -30.3465 H   0  0  0  0  0  0                  
  1  2  1  0  0  0
  1  6  2  0  0  0
  1 27  1  0  0  0
  2  3  2  0  0  0
  2 28  1  0  0  0
  3  4  1  0  0  0
  3 24  1  0  0  0
  4  5  2  0  0  0
  4  8  1  0  0  0
  5  6  1  0  0  0
  5  7  1  0  0  0
  6 29  1  0  0  0
  8  9  2  0  0  0
  8 10  1  0  0  0
 10 11  1  0  0  0
 10 30  1  0  0  0
 11 12  1  0  0  0
 11 16  2  0  0  0
 12 13  2  0  0  0
 12 31  1  0  0  0
 13 14  1  0  0  0
 13 32  1  0  0  0
 14 15  2  0  0  0
 15 16  1  0  0  0
 15 17  1  0  0  0
 16 33  1  0  0  0
 17 18  1  0  0  0
 17 34  1  0  0  0
 18 19  2  0  0  0
 18 20  1  0  0  0
 20 21  1  0  0  0
 20 22  1  0  0  0
 20 25  1  0  0  0
 21 22  1  0  0  0
 21 35  1  0  0  0
 21 36  1  0  0  0
 22 23  1  0  0  0
 22 26  1  0  0  0
M  END
> <r_user_dG.exp>
-11.31

$$$$
ejm_55
                    3D
 Structure written by MMmdl.
 33 34  0  0  1  0            999 V2000
  -23.2734   15.0306  -25.3327 C   0  0  0  0  0  0                  
  -23.7545   14.6844  -26.5920 C   0  0  0  0  0  0                  
  -25.1050   14.4070  -26.7742 C   0  0  0  0  0  0                  
  -25.9924   14.4647  -25.6841 C   0  0  0  0  0  0                  
  -25.4972   14.8280  -24.4165 C   0  0  0  0  0  0                  
  -24.1449   15.1009  -24.2544 C   0  0  0  0  0  0                  
  -26.5745   14.9344  -23.0539 Cl  0  0  0  0  0  0                  
  -27.4344   14.1553  -25.8219 C   0  0  0  0  0  0                  
  -27.8428   13.0758  -25.4273 O   0  0  0  0  0  0                  
  -28.2420   15.1003  -26.3410 N   0  0  0  0  0  0                  
  -29.6300   15.0761  -26.5139 C   0  0  0  0  0  0                  
  -30.5180   14.1493  -25.9334 C   0  0  0  0  0  0                  
  -31.8870   14.3208  -26.1153 C   0  0  0  0  0  0                  
  -32.3611   15.3355  -26.8329 N   0  0  0  0  0  0                  
  -31.5591   16.2311  -27.4071 C   0  0  0  0  0  0                  
  -30.1784   16.1449  -27.2149 C   0  0  0  0  0  0                  
  -32.1228   17.3101  -28.0973 N   0  0  0  0  0  0                  
  -31.5479   18.0321  -29.0952 C   0  0  0  0  0  0                  
  -30.4312   17.7977  -29.5271 O   0  0  0  0  0  0                  
  -25.6821   14.0165  -28.3581 Cl  0  0  0  0  0  0                  
  -22.2231   15.2443  -25.1955 H   0  0  0  0  0  0                  
  -23.0777   14.6301  -27.4323 H   0  0  0  0  0  0                  
  -23.7732   15.3703  -23.2765 H   0  0  0  0  0  0                  
  -27.8523   15.9721  -26.6701 H   0  0  0  0  0  0                  
  -30.1327   13.3210  -25.3571 H   0  0  0  0  0  0                  
  -32.5825   13.6242  -25.6707 H   0  0  0  0  0  0                  
  -29.5352   16.9151  -27.6145 H   0  0  0  0  0  0                  
  -33.0550   17.6260  -27.8676 H   0  0  0  0  0  0                  
  -31.8914   19.6958  -30.9677 C   0  0  0  0  0  0                  
  -32.6713   20.3141  -31.4120 H   0  0  0  0  0  0                  
  -30.9952   20.2969  -30.8139 H   0  0  0  0  0  0                  
  -32.3729   19.1831  -29.6353 O   0  0  0  0  0  0                  
  -31.6650   18.8571  -31.6261 H   0  0  0  0  0  0                  
  1  2  1  0  0  0
  1  6  2  0  0  0
  1 21  1  0  0  0
  2  3  2  0  0  0
  2 22  1  0  0  0
  3  4  1  0  0  0
  3 20  1  0  0  0
  4  5  2  0  0  0
  4  8  1  0  0  0
  5  6  1  0  0  0
  5  7  1  0  0  0
  6 23  1  0  0  0
  8  9  2  0  0  0
  8 10  1  0  0  0
 10 11  1  0  0  0
 10 24  1  0  0  0
 11 12  1  0  0  0
 11 16  2  0  0  0
 12 13  2  0  0  0
 12 25  1  0  0  0
 13 14  1  0  0  0
 13 26  1  0  0  0
 14 15  2  0  0  0
 15 16  1  0  0  0
 15 17  1  0  0  0
 16 27  1  0  0  0
 17 18  1  0  0  0
 17 28  1  0  0  0
 18 19  2  0  0  0
 18 32  1  0  0  0
 29 30  1  0  0  0
 29 31  1  0  0  0
 29 32  1  0  0  0
 29 33  1  0  0  0
M  END
> <r_user_dG.exp>
-9.21

$$$$
ejm_43
                    3D
 Structure written by MMmdl.
 38 39  0  0  1  0            999 V2000
  -23.2734   15.0306  -25.3327 C   0  0  0  0  0  0                  
  -23.7545   14.6844  -26.5920 C   0  0  0  0  0  0                  
  -25.1050   14.4070  -26.7742 C   0  0  0  0  0  0                  
  -25.9924   14.4647  -25.6841 C   0  0  0  0  0  0                  
  -25.4972   14.8280  -24.4165 C   0  0  0  0  0  0                  
  -24.1449   15.1009  -24.2544 C   0  0  0  0  0  0                  
  -26.5745   14.9344  -23.0539 Cl  0  0  0  0  0  0                  
  -27.4344   14.1553  -25.8219 C   0  0  0  0  0  0                  
  -27.8428   13.0758  -25.4273 O   0  0  0  0  0  0                  
  -28.2420   15.1003  -26.3410 N   0  0  0  0  0  0                  
  -29.6300   15.0761  -26.5139 C   0  0  0  0  0  0                  
  -30.5180   14.1493  -25.9334 C   0  0  0  0  0  0                  
  -31.8870   14.3208  -26.1153 C   0  0  0  0  0  0                  
  -32.3611   15.3355  -26.8329 N   0  0  0  0  0  0                  
  -31.5591   16.2311  -27.4071 C   0  0  0  0  0  0                  
  -30.1784   16.1449  -27.2149 C   0  0  0  0  0  0                  
  -32.1228   17.3101  -28.0973 N   0  0  0  0  0  0                  
  -31.5479   18.0321  -29.0952 C   0  0  0  0  0  0                  
  -30.4312   17.7977  -29.5271 O   0  0  0  0  0  0                  
  -32.3591   19.1786  -29.6469 C   0  0  0  0  0  0                  
  -25.6821   14.0165  -28.3581 Cl  0  0  0  0  0  0                  
  -33.8170   18.8662  -29.8114 C   0  0  0  0  0  0                  
  -22.2231   15.2443  -25.1955 H   0  0  0  0  0  0                  
  -23.0777   14.6301  -27.4323 H   0  0  0  0  0  0                  
  -23.7732   15.3703  -23.2765 H   0  0  0  0  0  0                  
  -27.8523   15.9721  -26.6701 H   0  0  0  0  0  0                  
  -30.1327   13.3210  -25.3571 H   0  0  0  0  0  0                  
  -32.5825   13.6242  -25.6707 H   0  0  0  0  0  0                  
  -29.5352   16.9151  -27.6145 H   0  0  0  0  0  0                  
  -33.0550   17.6260  -27.8676 H   0  0  0  0  0  0                  
  -31.7887   19.6012  -30.9683 C   0  0  0  0  0  0                  
  -32.2464   20.0466  -28.9973 H   0  0  0  0  0  0                  
  -32.3731   20.4295  -31.3687 H   0  0  0  0  0  0                  
  -30.7547   19.9186  -30.8335 H   0  0  0  0  0  0                  
  -31.8231   18.7630  -31.6643 H   0  0  0  0  0  0                  
  -34.3330   19.7386  -30.2121 H   0  0  0  0  0  0                  
  -33.9342   18.0280  -30.4982 H   0  0  0  0  0  0                  
  -34.2444   18.6046  -28.8435 H   0  0  0  0  0  0                  
  1  2  1  0  0  0
  1  6  2  0  0  0
  1 23  1  0  0  0
  2  3  2  0  0  0
  2 24  1  0  0  0
  3  4  1  0  0  0
  3 21  1  0  0  0
  4  5  2  0  0  0
  4  8  1  0  0  0
  5  6  1  0  0  0
  5  7  1  0  0  0
  6 25  1  0  0  0
  8  9  2  0  0  0
  8 10  1  0  0  0
 10 11  1  0  0  0
 10 26  1  0  0  0
 11 12  1  0  0  0
 11 16  2  0  0  0
 12 13  2  0  0  0
 12 27  1  0  0  0
 13 14  1  0  0  0
 13 28  1  0  0  0
 14 15  2  0  0  0
 15 16  1  0  0  0
 15 17  1  0  0  0
 16 29  1  0  0  0
 17 18  1  0  0  0
 17 30  1  0  0  0
 18 19  2  0  0  0
 18 20  1  0  0  0
 20 22  1  0  0  0
 20 31  1  0  0  0
 20 32  1  0  0  0
 22 36  1  0  0  0
 22 37  1  0  0  0
 22 38  1  0  0  0
 31 33  1  0  0  0
 31 34  1  0  0  0
 31 35  1  0  0  0
M  END
> <r_user_dG.exp>
-8.26

$$$$
jmc_28
                    3D
 Structure written by MMmdl.
 39 41  0  0  1  0            999 V2000
  -23.2734   15.0306  -25.3327 C   0  0  0  0  0  0                  
  -23.7545   14.6844  -26.5920 C   0  0  0  0  0  0                  
  -25.1050   14.4070  -26.7742 C   0  0  0  0  0  0                  
  -25.9924   14.4647  -25.6841 C   0  0  0  0  0  0                  
  -25.4972   14.8280  -24.4165 C   0  0  0  0  0  0                  
  -24.1449   15.1009  -24.2544 C   0  0  0  0  0  0                  
  -26.5745   14.9344  -23.0539 Cl  0  0  0  0  0  0                  
  -27.4344   14.1553  -25.8219 C   0  0  0  0  0  0                  
  -27.8428   13.0758  -25.4273 O   0  0  0  0  0  0                  
  -28.2420   15.1003  -26.3410 N   0  0  0  0  0  0                  
  -29.6300   15.0761  -26.5139 C   0  0  0  0  0  0                  
  -30.5180   14.1493  -25.9334 C   0  0  0  0  0  0                  
  -31.8870   14.3208  -26.1153 C   0  0  0  0  0  0                  
  -32.3611   15.3355  -26.8329 N   0  0  0  0  0  0                  
  -31.5591   16.2311  -27.4071 C   0  0  0  0  0  0                  
  -30.1784   16.1449  -27.2149 C   0  0  0  0  0  0                  
  -32.1228   17.3101  -28.0973 N   0  0  0  0  0  0                  
  -31.5479   18.0321  -29.0952 C   0  0  0  0  0  0                  
  -30.4312   17.7977  -29.5271 O   0  0  0  0  0  0                  
  -32.3591   19.1786  -29.6469 C   0  0  1  0  0  0                  
  -31.6582   20.2770  -30.4530 C   0  0  0  0  0  0                  
  -32.5735   19.2716  -31.1543 C   0  0  1  0  0  0                  
  -31.9275   18.2153  -32.0009 C   0  0  0  0  0  0                  
  -25.6821   14.0165  -28.3581 Cl  0  0  0  0  0  0                  
  -33.1786   19.4855  -29.0044 H   0  0  0  0  0  0                  
  -33.5342   19.6410  -31.5087 H   0  0  0  0  0  0                  
  -22.2231   15.2443  -25.1955 H   0  0  0  0  0  0                  
  -23.0777   14.6301  -27.4323 H   0  0  0  0  0  0                  
  -23.7732   15.3703  -23.2765 H   0  0  0  0  0  0                  
  -27.8523   15.9721  -26.6701 H   0  0  0  0  0  0                  
  -30.1327   13.3210  -25.3571 H   0  0  0  0  0  0                  
  -32.5825   13.6242  -25.6707 H   0  0  0  0  0  0                  
  -29.5352   16.9151  -27.6145 H   0  0  0  0  0  0                  
  -33.0550   17.6260  -27.8676 H   0  0  0  0  0  0                  
  -31.9680   21.2546  -30.0819 H   0  0  0  0  0  0                  
  -30.5776   20.1738  -30.3465 H   0  0  0  0  0  0                  
  -32.1585   18.3985  -33.0504 H   0  0  0  0  0  0                  
  -30.8474   18.2438  -31.8569 H   0  0  0  0  0  0                  
  -32.3064   17.2351  -31.7117 H   0  0  0  0  0  0                  
  1  2  1  0  0  0
  1  6  2  0  0  0
  1 27  1  0  0  0
  2  3  2  0  0  0
  2 28  1  0  0  0
  3  4  1  0  0  0
  3 24  1  0  0  0
  4  5  2  0  0  0
  4  8  1  0  0  0
  5  6  1  0  0  0
  5  7  1  0  0  0
  6 29  1  0  0  0
  8  9  2  0  0  0
  8 10  1  0  0  0
 10 11  1  0  0  0
 10 30  1  0  0  0
 11 12  1  0  0  0
 11 16  2  0  0  0
 12 13  2  0  0  0
 12 31  1  0  0  0
 13 14  1  0  0  0
 13 32  1  0  0  0
 14 15  2  0  0  0
 15 16  1  0  0  0
 15 17  1  0  0  0
 16 33  1  0  0  0
 17 18  1  0  0  0
 17 34  1  0  0  0
 18 19  2  0  0  0
 18 20  1  0  0  0
 20 21  1  0  0  0
 20 22  1  0  0  0
 20 25  1  0  0  0
 21 22  1  0  0  0
 21 35  1  0  0  0
 21 36  1  0  0  0
 22 23  1  0  0  0
 22 26  1  0  0  0
 23 37  1  0  0  0
 23 38  1  0  0  0
 23 39  1  0  0  0
M  END
> <r_user_dG.exp>
-10.98

$$$$
ejm_49
                    3D
 Structure written by MMmdl.
 39 41  0  0  1  0            999 V2000
  -23.2734   15.0306  -25.3327 C   0  0  0  0  0  0                  
  -23.7545   14.6844  -26.5920 C   0  0  0  0  0  0                  
  -25.1050   14.4070  -26.7742 C   0  0  0  0  0  0                  
  -25.9924   14.4647  -25.6841 C   0  0  0  0  0  0                  
  -25.4972   14.8280  -24.4165 C   0  0  0  0  0  0                  
  -24.1449   15.1009  -24.2544 C   0  0  0  0  0  0                  
  -26.5745   14.9344  -23.0539 Cl  0  0  0  0  0  0                  
  -27.4344   14.1553  -25.8219 C   0  0  0  0  0  0                  
  -27.8428   13.0758  -25.4273 O   0  0  0  0  0  0                  
  -28.2420   15.1003  -26.3410 N   0  0  0  0  0  0                  
  -29.6300   15.0761  -26.5139 C   0  0  0  0  0  0                  
  -30.5180   14.1493  -25.9334 C   0  0  0  0  0  0                  
  -31.8870   14.3208  -26.1153 C   0  0  0  0  0  0                  
  -32.3611   15.3355  -26.8329 N   0  0  0  0  0  0                  
  -31.5591   16.2311  -27.4071 C   0  0  0  0  0  0                  
  -30.1784   16.1449  -27.2149 C   0  0  0  0  0  0                  
  -32.1228   17.3101  -28.0973 N   0  0  0  0  0  0                  
  -31.5479   18.0321  -29.0952 C   0  0  0  0  0  0                  
  -30.4312   17.7977  -29.5271 O   0  0  0  0  0  0                  
  -25.6821   14.0165  -28.3581 Cl  0  0  0  0  0  0                  
  -22.2231   15.2443  -25.1955 H   0  0  0  0  0  0                  
  -23.0777   14.6301  -27.4323 H   0  0  0  0  0  0                  
  -23.7732   15.3703  -23.2765 H   0  0  0  0  0  0                  
  -27.8523   15.9721  -26.6701 H   0  0  0  0  0  0                  
  -30.1327   13.3210  -25.3571 H   0  0  0  0  0  0                  
  -32.5825   13.6242  -25.6707 H   0  0  0  0  0  0                  
  -29.5352   16.9151  -27.6145 H   0  0  0  0  0  0                  
  -33.0550   17.6260  -27.8676 H   0  0  0  0  0  0                  
  -33.7654   21.3291  -30.8325 C   0  0  0  0  0  0                  
  -34.4151   20.1156  -30.5530 C   0  0  0  0  0  0                  
  -33.6969   19.0477  -29.9904 C   0  0  0  0  0  0                  
  -32.3290   19.1934  -29.7072 C   0  0  0  0  0  0                  
  -31.6792   20.4068  -29.9866 C   0  0  0  0  0  0                  
  -32.3974   21.4748  -30.5492 C   0  0  0  0  0  0                  
  -34.3296   22.1680  -31.2744 H   0  0  0  0  0  0                  
  -35.4899   20.0012  -30.7755 H   0  0  0  0  0  0                  
  -34.2074   18.0945  -29.7709 H   0  0  0  0  0  0                  
  -30.6046   20.5212  -29.7640 H   0  0  0  0  0  0                  
  -31.8870   22.4280  -30.7688 H   0  0  0  0  0  0                  
  1  2  1  0  0  0
  1  6  2  0  0  0
  1 21  1  0  0  0
  2  3  2  0  0  0
  2 22  1  0  0  0
  3  4  1  0  0  0
  3 20  1  0  0  0
  4  5  2  0  0  0
  4  8  1  0  0  0
  5  6  1  0  0  0
  5  7  1  0  0  0
  6 23  1  0  0  0
  8  9  2  0  0  0
  8 10  1  0  0  0
 10 11  1  0  0  0
 10 24  1  0  0  0
 11 12  1  0  0  0
 11 16  2  0  0  0
 12 13  2  0  0  0
 12 25  1  0  0  0
 13 14  1  0  0  0
 13 26  1  0  0  0
 14 15  2  0  0  0
 15 16  1  0  0  0
 15 17  1  0  0  0
 16 27  1  0  0  0
 17 18  1  0  0  0
 17 28  1  0  0  0
 18 19  2  0  0  0
 18 32  1  0  0  0
 29 30  2  0  0  0
 29 34  1  0  0  0
 29 35  1  0  0  0
 30 31  1  0  0  0
 30 36  1  0  0  0
 31 32  2  0  0  0
 31 37  1  0  0  0
 32 33  1  0  0  0
 33 34  2  0  0  0
 33 38  1  0  0  0
 34 39  1  0  0  0
M  END
> <r_user_dG.exp>
-7.75

$$$$
ejm_45
                    3D
 Structure written by MMmdl.
 39 41  0  0  1  0            999 V2000
  -23.2734   15.0306  -25.3327 C   0  0  0  0  0  0                  
  -23.7545   14.6844  -26.5920 C   0  0  0  0  0  0                  
  -25.1050   14.4070  -26.7742 C   0  0  0  0  0  0                  
  -25.9924   14.4647  -25.6841 C   0  0  0  0  0  0                  
  -25.4972   14.8280  -24.4165 C   0  0  0  0  0  0                  
  -24.1449   15.1009  -24.2544 C   0  0  0  0  0  0                  
  -26.5745   14.9344  -23.0539 Cl  0  0  0  0  0  0                  
  -27.4344   14.1553  -25.8219 C   0  0  0  0  0  0                  
  -27.8428   13.0758  -25.4273 O   0  0  0  0  0  0                  
  -28.2420   15.1003  -26.3410 N   0  0  0  0  0  0                  
  -29.6300   15.0761  -26.5139 C   0  0  0  0  0  0                  
  -30.5180   14.1493  -25.9334 C   0  0  0  0  0  0                  
  -31.8870   14.3208  -26.1153 C   0  0  0  0  0  0                  
  -32.3611   15.3355  -26.8329 N   0  0  0  0  0  0                  
  -31.5591   16.2311  -27.4071 C   0  0  0  0  0  0                  
  -30.1784   16.1449  -27.2149 C   0  0  0  0  0  0                  
  -32.1228   17.3101  -28.0973 N   0  0  0  0  0  0                  
  -31.5479   18.0321  -29.0952 C   0  0  0  0  0  0                  
  -30.4312   17.7977  -29.5271 O   0  0  0  0  0  0                  
  -32.3591   19.1786  -29.6469 C   0  0  0  0  0  0                  
  -25.6821   14.0165  -28.3581 Cl  0  0  0  0  0  0                  
  -33.4141   18.9525  -29.7659 H   0  0  0  0  0  0                  
  -22.2231   15.2443  -25.1955 H   0  0  0  0  0  0                  
  -23.0777   14.6301  -27.4323 H   0  0  0  0  0  0                  
  -23.7732   15.3703  -23.2765 H   0  0  0  0  0  0                  
  -27.8523   15.9721  -26.6701 H   0  0  0  0  0  0                  
  -30.1327   13.3210  -25.3571 H   0  0  0  0  0  0                  
  -32.5825   13.6242  -25.6707 H   0  0  0  0  0  0                  
  -29.5352   16.9151  -27.6145 H   0  0  0  0  0  0                  
  -33.0550   17.6260  -27.8676 H   0  0  0  0  0  0                  
  -32.2464   20.0466  -28.9973 H   0  0  0  0  0  0                  
  -32.3731   20.4295  -31.3687 H   0  0  0  0  0  0                  
  -31.8310   19.6161  -30.9346 C   0  0  0  0  0  0                  
  -30.3405   19.5438  -31.1377 C   0  0  0  0  0  0                  
  -31.2446   18.5659  -31.8408 C   0  0  0  0  0  0                  
  -29.8952   20.3429  -31.7757 H   0  0  0  0  0  0                  
  -29.7505   19.1362  -30.2834 H   0  0  0  0  0  0                  
  -31.3857   18.7308  -32.9348 H   0  0  0  0  0  0                  
  -31.2410   17.5240  -31.4425 H   0  0  0  0  0  0                  
  1  2  1  0  0  0
  1  6  2  0  0  0
  1 23  1  0  0  0
  2  3  2  0  0  0
  2 24  1  0  0  0
  3  4  1  0  0  0
  3 21  1  0  0  0
  4  5  2  0  0  0
  4  8  1  0  0  0
  5  6  1  0  0  0
  5  7  1  0  0  0
  6 25  1  0  0  0
  8  9  2  0  0  0
  8 10  1  0  0  0
 10 11  1  0  0  0
 10 26  1  0  0  0
 11 12  1  0  0  0
 11 16  2  0  0  0
 12 13  2  0  0  0
 12 27  1  0  0  0
 13 14  1  0  0  0
 13 28  1  0  0  0
 14 15  2  0  0  0
 15 16  1  0  0  0
 15 17  1  0  0  0
 16 29  1  0  0  0
 17 18  1  0  0  0
 17 30  1  0  0  0
 18 19  2  0  0  0
 18 20  1  0  0  0
 20 22  1  0  0  0
 20 31  1  0  0  0
 20 33  1  0  0  0
 32 33  1  0  0  0
 33 34  1  0  0  0
 33 35  1  0  0  0
 34 35  1  0  0  0
 34 36  1  0  0  0
 34 37  1  0  0  0
 35 38  1  0  0  0
 35 39  1  0  0  0
M  END
> <r_user_dG.exp>
-9.56

$$$$
ejm_44
                    3D
 Structure written by MMmdl.
 41 42  0  0  1  0            999 V2000
  -23.2734   15.0306  -25.3327 C   0  0  0  0  0  0                  
  -23.7545   14.6844  -26.5920 C   0  0  0  0  0  0                  
  -25.1050   14.4070  -26.7742 C   0  0  0  0  0  0                  
  -25.9924   14.4647  -25.6841 C   0  0  0  0  0  0                  
  -25.4972   14.8280  -24.4165 C   0  0  0  0  0  0                  
  -24.1449   15.1009  -24.2544 C   0  0  0  0  0  0                  
  -26.5745   14.9344  -23.0539 Cl  0  0  0  0  0  0                  
  -27.4344   14.1553  -25.8219 C   0  0  0  0  0  0                  
  -27.8428   13.0758  -25.4273 O   0  0  0  0  0  0                  
  -28.2420   15.1003  -26.3410 N   0  0  0  0  0  0                  
  -29.6300   15.0761  -26.5139 C   0  0  0  0  0  0                  
  -30.5180   14.1493  -25.9334 C   0  0  0  0  0  0                  
  -31.8870   14.3208  -26.1153 C   0  0  0  0  0  0                  
  -32.3611   15.3355  -26.8329 N   0  0  0  0  0  0                  
  -31.5591   16.2311  -27.4071 C   0  0  0  0  0  0                  
  -30.1784   16.1449  -27.2149 C   0  0  0  0  0  0                  
  -32.1228   17.3101  -28.0973 N   0  0  0  0  0  0                  
  -31.5479   18.0321  -29.0952 C   0  0  0  0  0  0                  
  -30.4312   17.7977  -29.5271 O   0  0  0  0  0  0                  
  -32.3591   19.1786  -29.6469 C   0  0  0  0  0  0                  
  -25.6821   14.0165  -28.3581 Cl  0  0  0  0  0  0                  
  -33.8170   18.8662  -29.8114 C   0  0  0  0  0  0                  
  -22.2231   15.2443  -25.1955 H   0  0  0  0  0  0                  
  -23.0777   14.6301  -27.4323 H   0  0  0  0  0  0                  
  -23.7732   15.3703  -23.2765 H   0  0  0  0  0  0                  
  -27.8523   15.9721  -26.6701 H   0  0  0  0  0  0                  
  -30.1327   13.3210  -25.3571 H   0  0  0  0  0  0                  
  -32.5825   13.6242  -25.6707 H   0  0  0  0  0  0                  
  -29.5352   16.9151  -27.6145 H   0  0  0  0  0  0                  
  -33.0550   17.6260  -27.8676 H   0  0  0  0  0  0                  
  -31.7887   19.6012  -30.9683 C   0  0  0  0  0  0                  
  -32.2041   20.3731  -28.7529 C   0  0  0  0  0  0                  
  -32.3731   20.4295  -31.3687 H   0  0  0  0  0  0                  
  -30.7547   19.9186  -30.8335 H   0  0  0  0  0  0                  
  -31.8231   18.7630  -31.6643 H   0  0  0  0  0  0                  
  -34.3330   19.7386  -30.2121 H   0  0  0  0  0  0                  
  -33.9342   18.0280  -30.4982 H   0  0  0  0  0  0                  
  -34.2444   18.6046  -28.8435 H   0  0  0  0  0  0                  
  -32.7893   21.2027  -29.1495 H   0  0  0  0  0  0                  
  -32.5568   20.1263  -27.7515 H   0  0  0  0  0  0                  
  -31.1534   20.6594  -28.7071 H   0  0  0  0  0  0                  
  1  2  1  0  0  0
  1  6  2  0  0  0
  1 23  1  0  0  0
  2  3  2  0  0  0
  2 24  1  0  0  0
  3  4  1  0  0  0
  3 21  1  0  0  0
  4  5  2  0  0  0
  4  8  1  0  0  0
  5  6  1  0  0  0
  5  7  1  0  0  0
  6 25  1  0  0  0
  8  9  2  0  0  0
  8 10  1  0  0  0
 10 11  1  0  0  0
 10 26  1  0  0  0
 11 12  1  0  0  0
 11 16  2  0  0  0
 12 13  2  0  0  0
 12 27  1  0  0  0
 13 14  1  0  0  0
 13 28  1  0  0  0
 14 15  2  0  0  0
 15 16  1  0  0  0
 15 17  1  0  0  0
 16 29  1  0  0  0
 17 18  1  0  0  0
 17 30  1  0  0  0
 18 19  2  0  0  0
 18 20  1  0  0  0
 20 22  1  0  0  0
 20 31  1  0  0  0
 20 32  1  0  0  0
 22 36  1  0  0  0
 22 37  1  0  0  0
 22 38  1  0  0  0
 31 33  1  0  0  0
 31 34  1  0  0  0
 31 35  1  0  0  0
 32 39  1  0  0  0
 32 40  1  0  0  0
 32 41  1  0  0  0
M  END
> <r_user_dG.exp>
-7.42

$$$$
jmc_27
                    3D
 Structure written by MMmdl.
 36 38  0  0  1  0            999 V2000
  -23.2734   15.0306  -25.3327 C   0  0  0  0  0  0                  
  -23.7545   14.6844  -26.5920 C   0  0  0  0  0  0                  
  -25.1050   14.4070  -26.7742 C   0  0  0  0  0  0                  
  -25.9924   14.4647  -25.6841 C   0  0  0  0  0  0                  
  -25.4972   14.8280  -24.4165 C   0  0  0  0  0  0                  
  -24.1449   15.1009  -24.2544 C   0  0  0  0  0  0                  
  -26.5745   14.9344  -23.0539 Cl  0  0  0  0  0  0                  
  -27.4344   14.1553  -25.8219 C   0  0  0  0  0  0                  
  -27.8428   13.0758  -25.4273 O   0  0  0  0  0  0                  
  -28.2420   15.1003  -26.3410 N   0  0  0  0  0  0                  
  -29.6300   15.0761  -26.5139 C   0  0  0  0  0  0                  
  -30.5180   14.1493  -25.9334 C   0  0  0  0  0  0                  
  -31.8870   14.3208  -26.1153 C   0  0  0  0  0  0                  
  -32.3611   15.3355  -26.8329 N   0  0  0  0  0  0                  
  -31.5591   16.2311  -27.4071 C   0  0  0  0  0  0                  
  -30.1784   16.1449  -27.2149 C   0  0  0  0  0  0                  
  -32.1228   17.3101  -28.0973 N   0  0  0  0  0  0                  
  -31.5479   18.0321  -29.0952 C   0  0  0  0  0  0                  
  -30.4312   17.7977  -29.5271 O   0  0  0  0  0  0                  
  -32.3591   19.1786  -29.6469 C   0  0  1  0  0  0                  
  -31.6582   20.2770  -30.4530 C   0  0  0  0  0  0                  
  -32.5735   19.2716  -31.1543 C   0  0  1  0  0  0                  
  -31.8004   18.0076  -32.1675 Cl  0  0  0  0  0  0                  
  -25.6821   14.0165  -28.3581 Cl  0  0  0  0  0  0                  
  -33.1786   19.4855  -29.0044 H   0  0  0  0  0  0                  
  -33.5342   19.6410  -31.5087 H   0  0  0  0  0  0                  
  -22.2231   15.2443  -25.1955 H   0  0  0  0  0  0                  
  -23.0777   14.6301  -27.4323 H   0  0  0  0  0  0                  
  -23.7732   15.3703  -23.2765 H   0  0  0  0  0  0                  
  -27.8523   15.9721  -26.6701 H   0  0  0  0  0  0                  
  -30.1327   13.3210  -25.3571 H   0  0  0  0  0  0                  
  -32.5825   13.6242  -25.6707 H   0  0  0  0  0  0                  
  -29.5352   16.9151  -27.6145 H   0  0  0  0  0  0                  
  -33.0550   17.6260  -27.8676 H   0  0  0  0  0  0                  
  -31.9680   21.2546  -30.0819 H   0  0  0  0  0  0                  
  -30.5776   20.1738  -30.3465 H   0  0  0  0  0  0                  
  1  2  1  0  0  0
  1  6  2  0  0  0
  1 27  1  0  0  0
  2  3  2  0  0  0
  2 28  1  0  0  0
  3  4  1  0  0  0
  3 24  1  0  0  0
  4  5  2  0  0  0
  4  8  1  0  0  0
  5  6  1  0  0  0
  5  7  1  0  0  0
  6 29  1  0  0  0
  8  9  2  0  0  0
  8 10  1  0  0  0
 10 11  1  0  0  0
 10 30  1  0  0  0
 11 12  1  0  0  0
 11 16  2  0  0  0
 12 13  2  0  0  0
 12 31  1  0  0  0
 13 14  1  0  0  0
 13 32  1  0  0  0
 14 15  2  0  0  0
 15 16  1  0  0  0
 15 17  1  0  0  0
 16 33  1  0  0  0
 17 18  1  0  0  0
 17 34  1  0  0  0
 18 19  2  0  0  0
 18 20  1  0  0  0
 20 21  1  0  0  0
 20 22  1  0  0  0
 20 25  1  0  0  0
 21 22  1  0  0  0
 21 35  1  0  0  0
 21 36  1  0  0  0
 22 23  1  0  0  0
 22 26  1  0  0  0
M  END
> <i_m_stars>
2

> <r_user_dG.exp>
-11.28

$$$$
ejm_48
                    3D
 Structure written by MMmdl.
 42 44  0  0  1  0            999 V2000
  -23.2734   15.0306  -25.3327 C   0  0  0  0  0  0                  
  -23.7545   14.6844  -26.5920 C   0  0  0  0  0  0                  
  -25.1050   14.4070  -26.7742 C   0  0  0  0  0  0                  
  -25.9924   14.4647  -25.6841 C   0  0  0  0  0  0                  
  -25.4972   14.8280  -24.4165 C   0  0  0  0  0  0                  
  -24.1449   15.1009  -24.2544 C   0  0  0  0  0  0                  
  -26.5745   14.9344  -23.0539 Cl  0  0  0  0  0  0                  
  -27.4344   14.1553  -25.8219 C   0  0  0  0  0  0                  
  -27.8428   13.0758  -25.4273 O   0  0  0  0  0  0                  
  -28.2420   15.1003  -26.3410 N   0  0  0  0  0  0                  
  -29.6300   15.0761  -26.5139 C   0  0  0  0  0  0                  
  -30.5180   14.1493  -25.9334 C   0  0  0  0  0  0                  
  -31.8870   14.3208  -26.1153 C   0  0  0  0  0  0                  
  -32.3611   15.3355  -26.8329 N   0  0  0  0  0  0                  
  -31.5591   16.2311  -27.4071 C   0  0  0  0  0  0                  
  -30.1784   16.1449  -27.2149 C   0  0  0  0  0  0                  
  -32.1228   17.3101  -28.0973 N   0  0  0  0  0  0                  
  -31.5479   18.0321  -29.0952 C   0  0  0  0  0  0                  
  -30.4312   17.7977  -29.5271 O   0  0  0  0  0  0                  
  -25.6821   14.0165  -28.3581 Cl  0  0  0  0  0  0                  
  -22.2231   15.2443  -25.1955 H   0  0  0  0  0  0                  
  -23.0777   14.6301  -27.4323 H   0  0  0  0  0  0                  
  -23.7732   15.3703  -23.2765 H   0  0  0  0  0  0                  
  -27.8523   15.9721  -26.6701 H   0  0  0  0  0  0                  
  -30.1327   13.3210  -25.3571 H   0  0  0  0  0  0                  
  -32.5825   13.6242  -25.6707 H   0  0  0  0  0  0                  
  -29.5352   16.9151  -27.6145 H   0  0  0  0  0  0                  
  -33.0550   17.6260  -27.8676 H   0  0  0  0  0  0                  
  -33.1704   19.4998  -29.0351 H   0  0  0  0  0  0                  
  -32.3290   19.1934  -29.7072 C   0  0  0  0  0  0                  
  -31.3734   20.3708  -29.9424 C   0  0  0  0  0  0                  
  -30.8816   20.1638  -31.3765 C   0  0  0  0  0  0                  
  -32.1538   19.7171  -32.1004 C   0  0  0  0  0  0                  
  -32.8450   18.7825  -31.0982 C   0  0  0  0  0  0                  
  -30.5394   20.4111  -29.2009 H   0  0  0  0  0  0                  
  -31.9374   21.3335  -29.8814 H   0  0  0  0  0  0                  
  -30.4300   21.0845  -31.8186 H   0  0  0  0  0  0                  
  -30.1208   19.3463  -31.4037 H   0  0  0  0  0  0                  
  -32.7991   20.6087  -32.2926 H   0  0  0  0  0  0                  
  -31.9426   19.2264  -33.0810 H   0  0  0  0  0  0                  
  -32.5625   17.7229  -31.3116 H   0  0  0  0  0  0                  
  -33.9567   18.8547  -31.1747 H   0  0  0  0  0  0                  
  1  2  1  0  0  0
  1  6  2  0  0  0
  1 21  1  0  0  0
  2  3  2  0  0  0
  2 22  1  0  0  0
  3  4  1  0  0  0
  3 20  1  0  0  0
  4  5  2  0  0  0
  4  8  1  0  0  0
  5  6  1  0  0  0
  5  7  1  0  0  0
  6 23  1  0  0  0
  8  9  2  0  0  0
  8 10  1  0  0  0
 10 11  1  0  0  0
 10 24  1  0  0  0
 11 12  1  0  0  0
 11 16  2  0  0  0
 12 13  2  0  0  0
 12 25  1  0  0  0
 13 14  1  0  0  0
 13 26  1  0  0  0
 14 15  2  0  0  0
 15 16  1  0  0  0
 15 17  1  0  0  0
 16 27  1  0  0  0
 17 18  1  0  0  0
 17 28  1  0  0  0
 18 19  2  0  0  0
 18 30  1  0  0  0
 29 30  1  0  0  0
 30 31  1  0  0  0
 30 34  1  0  0  0
 31 32  1  0  0  0
 31 35  1  0  0  0
 31 36  1  0  0  0
 32 33  1  0  0  0
 32 37  1  0  0  0
 32 38  1  0  0  0
 33 34  1  0  0  0
 33 39  1  0  0  0
 33 40  1  0  0  0
 34 41  1  0  0  0
 34 42  1  0  0  0
M  END
> <r_user_dG.exp>
-9

$$$$
ejm_47
                    3D
 Structure written by MMmdl.
 39 41  0  0  1  0            999 V2000
  -23.2734   15.0306  -25.3327 C   0  0  0  0  0  0                  
  -23.7545   14.6844  -26.5920 C   0  0  0  0  0  0                  
  -25.1050   14.4070  -26.7742 C   0  0  0  0  0  0                  
  -25.9924   14.4647  -25.6841 C   0  0  0  0  0  0                  
  -25.4972   14.8280  -24.4165 C   0  0  0  0  0  0                  
  -24.1449   15.1009  -24.2544 C   0  0  0  0  0  0                  
  -26.5745   14.9344  -23.0539 Cl  0  0  0  0  0  0                  
  -27.4344   14.1553  -25.8219 C   0  0  0  0  0  0                  
  -27.8428   13.0758  -25.4273 O   0  0  0  0  0  0                  
  -28.2420   15.1003  -26.3410 N   0  0  0  0  0  0                  
  -29.6300   15.0761  -26.5139 C   0  0  0  0  0  0                  
  -30.5180   14.1493  -25.9334 C   0  0  0  0  0  0                  
  -31.8870   14.3208  -26.1153 C   0  0  0  0  0  0                  
  -32.3611   15.3355  -26.8329 N   0  0  0  0  0  0                  
  -31.5591   16.2311  -27.4071 C   0  0  0  0  0  0                  
  -30.1784   16.1449  -27.2149 C   0  0  0  0  0  0                  
  -32.1228   17.3101  -28.0973 N   0  0  0  0  0  0                  
  -31.5479   18.0321  -29.0952 C   0  0  0  0  0  0                  
  -30.4312   17.7977  -29.5271 O   0  0  0  0  0  0                  
  -25.6821   14.0165  -28.3581 Cl  0  0  0  0  0  0                  
  -22.2231   15.2443  -25.1955 H   0  0  0  0  0  0                  
  -23.0777   14.6301  -27.4323 H   0  0  0  0  0  0                  
  -23.7732   15.3703  -23.2765 H   0  0  0  0  0  0                  
  -27.8523   15.9721  -26.6701 H   0  0  0  0  0  0                  
  -30.1327   13.3210  -25.3571 H   0  0  0  0  0  0                  
  -32.5825   13.6242  -25.6707 H   0  0  0  0  0  0                  
  -29.5352   16.9151  -27.6145 H   0  0  0  0  0  0                  
  -33.0550   17.6260  -27.8676 H   0  0  0  0  0  0                  
  -32.3432   19.1791  -29.6684 C   0  0  0  0  0  0                  
  -31.4485   20.3288  -30.1453 C   0  0  0  0  0  0                  
  -31.4835   19.7133  -31.5487 C   0  0  0  0  0  0                  
  -32.7400   18.9417  -31.1298 C   0  0  0  0  0  0                  
  -31.9662   21.3178  -30.1006 H   0  0  0  0  0  0                  
  -30.4374   20.3612  -29.6738 H   0  0  0  0  0  0                  
  -31.6385   20.4457  -32.3765 H   0  0  0  0  0  0                  
  -30.6135   19.0390  -31.7398 H   0  0  0  0  0  0                  
  -33.6806   19.4765  -31.4080 H   0  0  0  0  0  0                  
  -32.7567   17.8703  -31.4418 H   0  0  0  0  0  0                  
  -33.1704   19.4998  -29.0351 H   0  0  0  0  0  0                  
  1  2  1  0  0  0
  1  6  2  0  0  0
  1 21  1  0  0  0
  2  3  2  0  0  0
  2 22  1  0  0  0
  3  4  1  0  0  0
  3 20  1  0  0  0
  4  5  2  0  0  0
  4  8  1  0  0  0
  5  6  1  0  0  0
  5  7  1  0  0  0
  6 23  1  0  0  0
  8  9  2  0  0  0
  8 10  1  0  0  0
 10 11  1  0  0  0
 10 24  1  0  0  0
 11 12  1  0  0  0
 11 16  2  0  0  0
 12 13  2  0  0  0
 12 25  1  0  0  0
 13 14  1  0  0  0
 13 26  1  0  0  0
 14 15  2  0  0  0
 15 16  1  0  0  0
 15 17  1  0  0  0
 16 27  1  0  0  0
 17 18  1  0  0  0
 17 28  1  0  0  0
 18 19  2  0  0  0
 18 29  1  0  0  0
 29 30  1  0  0  0
 29 32  1  0  0  0
 29 39  1  0  0  0
 30 31  1  0  0  0
 30 33  1  0  0  0
 30 34  1  0  0  0
 31 32  1  0  0  0
 31 35  1  0  0  0
 31 36  1  0  0  0
 32 37  1  0  0  0
 32 38  1  0  0  0
M  END
> <r_user_dG.exp>
-9.7

$$$$
jmc_23
                    3D
 Structure written by MMmdl.
 36 38  0  0  1  0            999 V2000
  -23.2734   15.0306  -25.3327 C   0  0  0  0  0  0                  
  -23.7545   14.6844  -26.5920 C   0  0  0  0  0  0                  
  -25.1050   14.4070  -26.7742 C   0  0  0  0  0  0                  
  -25.9924   14.4647  -25.6841 C   0  0  0  0  0  0                  
  -25.4972   14.8280  -24.4165 C   0  0  0  0  0  0                  
  -24.1449   15.1009  -24.2544 C   0  0  0  0  0  0                  
  -26.5745   14.9344  -23.0539 Cl  0  0  0  0  0  0                  
  -27.4344   14.1553  -25.8219 C   0  0  0  0  0  0                  
  -27.8428   13.0758  -25.4273 O   0  0  0  0  0  0                  
  -28.2420   15.1003  -26.3410 N   0  0  0  0  0  0                  
  -29.6300   15.0761  -26.5139 C   0  0  0  0  0  0                  
  -30.5180   14.1493  -25.9334 C   0  0  0  0  0  0                  
  -31.8870   14.3208  -26.1153 C   0  0  0  0  0  0                  
  -32.3611   15.3355  -26.8329 N   0  0  0  0  0  0                  
  -31.5591   16.2311  -27.4071 C   0  0  0  0  0  0                  
  -30.1784   16.1449  -27.2149 C   0  0  0  0  0  0                  
  -32.1228   17.3101  -28.0973 N   0  0  0  0  0  0                  
  -31.5479   18.0321  -29.0952 C   0  0  0  0  0  0                  
  -30.4312   17.7977  -29.5271 O   0  0  0  0  0  0                  
  -32.3591   19.1786  -29.6469 C   0  0  1  0  0  0                  
  -31.6582   20.2770  -30.4530 C   0  0  0  0  0  0                  
  -32.5735   19.2716  -31.1543 C   0  0  1  0  0  0                  
  -31.9725   18.2890  -31.9420 F   0  0  0  0  0  0                  
  -25.6821   14.0165  -28.3581 Cl  0  0  0  0  0  0                  
  -33.1786   19.4855  -29.0044 H   0  0  0  0  0  0                  
  -33.5342   19.6410  -31.5087 H   0  0  0  0  0  0                  
  -22.2231   15.2443  -25.1955 H   0  0  0  0  0  0                  
  -23.0777   14.6301  -27.4323 H   0  0  0  0  0  0                  
  -23.7732   15.3703  -23.2765 H   0  0  0  0  0  0                  
  -27.8523   15.9721  -26.6701 H   0  0  0  0  0  0                  
  -30.1327   13.3210  -25.3571 H   0  0  0  0  0  0                  
  -32.5825   13.6242  -25.6707 H   0  0  0  0  0  0                  
  -29.5352   16.9151  -27.6145 H   0  0  0  0  0  0                  
  -33.0550   17.6260  -27.8676 H   0  0  0  0  0  0                  
  -31.9680   21.2546  -30.0819 H   0  0  0  0  0  0                  
  -30.5776   20.1738  -30.3465 H   0  0  0  0  0  0                  
  1  2  1  0  0  0
  1  6  2  0  0  0
  1 27  1  0  0  0
  2  3  2  0  0  0
  2 28  1  0  0  0
  3  4  1  0  0  0
  3 24  1  0  0  0
  4  5  2  0  0  0
  4  8  1  0  0  0
  5  6  1  0  0  0
  5  7  1  0  0  0
  6 29  1  0  0  0
  8  9  2  0  0  0
  8 10  1  0  0  0
 10 11  1  0  0  0
 10 30  1  0  0  0
 11 12  1  0  0  0
 11 16  2  0  0  0
 12 13  2  0  0  0
 12 31  1  0  0  0
 13 14  1  0  0  0
 13 32  1  0  0  0
 14 15  2  0  0  0
 15 16  1  0  0  0
 15 17  1  0  0  0
 16 33  1  0  0  0
 17 18  1  0  0  0
 17 34  1  0  0  0
 18 19  2  0  0  0
 18 20  1  0  0  0
 20 21  1  0  0  0
 20 22  1  0  0  0
 20 25  1  0  0  0
 21 22  1  0  0  0
 21 35  1  0  0  0
 21 36  1  0  0  0
 22 23  1  0  0  0
 22 26  1  0  0  0
M  END
> <r_user_dG.exp>
-11.7

$$$$
ejm_42
                    3D
 Structure written by MMmdl.
 35 36  0  0  1  0            999 V2000
  -23.2734   15.0306  -25.3327 C   0  0  0  0  0  0                  
  -23.7545   14.6844  -26.5920 C   0  0  0  0  0  0                  
  -25.1050   14.4070  -26.7742 C   0  0  0  0  0  0                  
  -25.9924   14.4647  -25.6841 C   0  0  0  0  0  0                  
  -25.4972   14.8280  -24.4165 C   0  0  0  0  0  0                  
  -24.1449   15.1009  -24.2544 C   0  0  0  0  0  0                  
  -26.5745   14.9344  -23.0539 Cl  0  0  0  0  0  0                  
  -27.4344   14.1553  -25.8219 C   0  0  0  0  0  0                  
  -27.8428   13.0758  -25.4273 O   0  0  0  0  0  0                  
  -28.2420   15.1003  -26.3410 N   0  0  0  0  0  0                  
  -29.6300   15.0761  -26.5139 C   0  0  0  0  0  0                  
  -30.5180   14.1493  -25.9334 C   0  0  0  0  0  0                  
  -31.8870   14.3208  -26.1153 C   0  0  0  0  0  0                  
  -32.3611   15.3355  -26.8329 N   0  0  0  0  0  0                  
  -31.5591   16.2311  -27.4071 C   0  0  0  0  0  0                  
  -30.1784   16.1449  -27.2149 C   0  0  0  0  0  0                  
  -32.1228   17.3101  -28.0973 N   0  0  0  0  0  0                  
  -31.5479   18.0321  -29.0952 C   0  0  0  0  0  0                  
  -30.4312   17.7977  -29.5271 O   0  0  0  0  0  0                  
  -32.3591   19.1786  -29.6469 C   0  0  0  0  0  0                  
  -25.6821   14.0165  -28.3581 Cl  0  0  0  0  0  0                  
  -33.4141   18.9525  -29.7659 H   0  0  0  0  0  0                  
  -22.2231   15.2443  -25.1955 H   0  0  0  0  0  0                  
  -23.0777   14.6301  -27.4323 H   0  0  0  0  0  0                  
  -23.7732   15.3703  -23.2765 H   0  0  0  0  0  0                  
  -27.8523   15.9721  -26.6701 H   0  0  0  0  0  0                  
  -30.1327   13.3210  -25.3571 H   0  0  0  0  0  0                  
  -32.5825   13.6242  -25.6707 H   0  0  0  0  0  0                  
  -29.5352   16.9151  -27.6145 H   0  0  0  0  0  0                  
  -33.0550   17.6260  -27.8676 H   0  0  0  0  0  0                  
  -31.7887   19.6012  -30.9683 C   0  0  0  0  0  0                  
  -32.2464   20.0466  -28.9973 H   0  0  0  0  0  0                  
  -32.3731   20.4295  -31.3687 H   0  0  0  0  0  0                  
  -30.7547   19.9186  -30.8335 H   0  0  0  0  0  0                  
  -31.8231   18.7630  -31.6643 H   0  0  0  0  0  0                  
  1  2  1  0  0  0
  1  6  2  0  0  0
  1 23  1  0  0  0
  2  3  2  0  0  0
  2 24  1  0  0  0
  3  4  1  0  0  0
  3 21  1  0  0  0
  4  5  2  0  0  0
  4  8  1  0  0  0
  5  6  1  0  0  0
  5  7  1  0  0  0
  6 25  1  0  0  0
  8  9  2  0  0  0
  8 10  1  0  0  0
 10 11  1  0  0  0
 10 26  1  0  0  0
 11 12  1  0  0  0
 11 16  2  0  0  0
 12 13  2  0  0  0
 12 27  1  0  0  0
 13 14  1  0  0  0
 13 28  1  0  0  0
 14 15  2  0  0  0
 15 16  1  0  0  0
 15 17  1  0  0  0
 16 29  1  0  0  0
 17 18  1  0  0  0
 17 30  1  0  0  0
 18 19  2  0  0  0
 18 20  1  0  0  0
 20 22  1  0  0  0
 20 31  1  0  0  0
 20 32  1  0  0  0
 31 33  1  0  0  0
 31 34  1  0  0  0
 31 35  1  0  0  0
M  END
> <r_user_dG.exp>
-9.78

$$$$
ejm_54
                    3D
 Structure written by MMmdl.
 37 38  0  0  1  0            999 V2000
  -23.2734   15.0306  -25.3327 C   0  0  0  0  0  0                  
  -23.7545   14.6844  -26.5920 C   0  0  0  0  0  0                  
  -25.1050   14.4070  -26.7742 C   0  0  0  0  0  0                  
  -25.9924   14.4647  -25.6841 C   0  0  0  0  0  0                  
  -25.4972   14.8280  -24.4165 C   0  0  0  0  0  0                  
  -24.1449   15.1009  -24.2544 C   0  0  0  0  0  0                  
  -26.5745   14.9344  -23.0539 Cl  0  0  0  0  0  0                  
  -27.4344   14.1553  -25.8219 C   0  0  0  0  0  0                  
  -27.8428   13.0758  -25.4273 O   0  0  0  0  0  0                  
  -28.2420   15.1003  -26.3410 N   0  0  0  0  0  0                  
  -29.6300   15.0761  -26.5139 C   0  0  0  0  0  0                  
  -30.5180   14.1493  -25.9334 C   0  0  0  0  0  0                  
  -31.8870   14.3208  -26.1153 C   0  0  0  0  0  0                  
  -32.3611   15.3355  -26.8329 N   0  0  0  0  0  0                  
  -31.5591   16.2311  -27.4071 C   0  0  0  0  0  0                  
  -30.1784   16.1449  -27.2149 C   0  0  0  0  0  0                  
  -32.1228   17.3101  -28.0973 N   0  0  0  0  0  0                  
  -31.5479   18.0321  -29.0952 C   0  0  0  0  0  0                  
  -30.4312   17.7977  -29.5271 O   0  0  0  0  0  0                  
  -25.6821   14.0165  -28.3581 Cl  0  0  0  0  0  0                  
  -22.2231   15.2443  -25.1955 H   0  0  0  0  0  0                  
  -23.0777   14.6301  -27.4323 H   0  0  0  0  0  0                  
  -23.7732   15.3703  -23.2765 H   0  0  0  0  0  0                  
  -27.8523   15.9721  -26.6701 H   0  0  0  0  0  0                  
  -30.1327   13.3210  -25.3571 H   0  0  0  0  0  0                  
  -32.5825   13.6242  -25.6707 H   0  0  0  0  0  0                  
  -29.5352   16.9151  -27.6145 H   0  0  0  0  0  0                  
  -33.0550   17.6260  -27.8676 H   0  0  0  0  0  0                  
  -31.8914   19.6958  -30.9677 C   0  0  0  0  0  0                  
  -32.6713   20.3141  -31.4120 H   0  0  0  0  0  0                  
  -30.9952   20.2969  -30.8139 H   0  0  0  0  0  0                  
  -31.5748   18.5539  -31.8875 C   0  0  0  0  0  0                  
  -32.2955   19.1455  -29.6825 N   0  0  0  0  0  0                  
  -33.0917   19.5316  -29.1957 H   0  0  0  0  0  0                  
  -30.7949   17.9349  -31.4439 H   0  0  0  0  0  0                  
  -32.4706   17.9528  -32.0429 H   0  0  0  0  0  0                  
  -31.2285   18.9431  -32.8449 H   0  0  0  0  0  0                  
  1  2  1  0  0  0
  1  6  2  0  0  0
  1 21  1  0  0  0
  2  3  2  0  0  0
  2 22  1  0  0  0
  3  4  1  0  0  0
  3 20  1  0  0  0
  4  5  2  0  0  0
  4  8  1  0  0  0
  5  6  1  0  0  0
  5  7  1  0  0  0
  6 23  1  0  0  0
  8  9  2  0  0  0
  8 10  1  0  0  0
 10 11  1  0  0  0
 10 24  1  0  0  0
 11 12  1  0  0  0
 11 16  2  0  0  0
 12 13  2  0  0  0
 12 25  1  0  0  0
 13 14  1  0  0  0
 13 26  1  0  0  0
 14 15  2  0  0  0
 15 16  1  0  0  0
 15 17  1  0  0  0
 16 27  1  0  0  0
 17 18  1  0  0  0
 17 28  1  0  0  0
 18 19  2  0  0  0
 18 33  1  0  0  0
 29 30  1  0  0  0
 29 31  1  0  0  0
 29 32  1  0  0  0
 29 33  1  0  0  0
 32 35  1  0  0  0
 32 36  1  0  0  0
 32 37  1  0  0  0
 33 34  1  0  0  0
M  END
> <r_user_dG.exp>
-10.53

$$$$
