ejm_31
                    3D
 Structure written by MMmdl.
 32 33  0  0  1  0            999 V2000
    0.5262   -1.6430   -6.7261 C   0  0  0  0  0  0                  
    0.0451   -1.9892   -7.9853 C   0  0  0  0  0  0                  
   -1.3055   -2.2666   -8.1676 C   0  0  0  0  0  0                  
   -2.1928   -2.2089   -7.0775 C   0  0  0  0  0  0                  
   -1.6976   -1.8456   -5.8099 C   0  0  0  0  0  0                  
   -0.3453   -1.5727   -5.6478 C   0  0  0  0  0  0                  
   -2.7749   -1.7392   -4.4473 Cl  0  0  0  0  0  0                  
   -3.6348   -2.5183   -7.2152 C   0  0  0  0  0  0                  
   -4.0433   -3.5978   -6.8206 O   0  0  0  0  0  0                  
   -4.4425   -1.5733   -7.7344 N   0  0  0  0  0  0                  
   -5.8304   -1.5975   -7.9073 C   0  0  0  0  0  0                  
   -6.7185   -2.5243   -7.3268 C   0  0  0  0  0  0                  
   -8.0875   -2.3528   -7.5087 C   0  0  0  0  0  0                  
   -8.5615   -1.3381   -8.2262 N   0  0  0  0  0  0                  
   -7.7595   -0.4425   -8.8005 C   0  0  0  0  0  0                  
   -6.3788   -0.5287   -8.6082 C   0  0  0  0  0  0                  
   -8.3233    0.6365   -9.4907 N   0  0  0  0  0  0                  
   -7.7484    1.3585  -10.4886 C   0  0  0  0  0  0                  
   -6.6316    1.1242  -10.9205 O   0  0  0  0  0  0                  
   -8.5595    2.5050  -11.0403 C   0  0  0  0  0  0                  
   -1.8825   -2.6570   -9.7515 Cl  0  0  0  0  0  0                  
   -9.3790    2.8120  -10.3978 H   0  0  0  0  0  0                  
    1.5765   -1.4293   -6.5888 H   0  0  0  0  0  0                  
    0.7219   -2.0435   -8.8256 H   0  0  0  0  0  0                  
    0.0264   -1.3033   -4.6698 H   0  0  0  0  0  0                  
   -4.0528   -0.7015   -8.0635 H   0  0  0  0  0  0                  
   -6.3331   -3.3526   -6.7504 H   0  0  0  0  0  0                  
   -8.7830   -3.0494   -7.0641 H   0  0  0  0  0  0                  
   -5.7357    0.2415   -9.0079 H   0  0  0  0  0  0                  
   -9.2554    0.9524   -9.2609 H   0  0  0  0  0  0                  
   -8.9511    2.2323  -12.0203 H   0  0  0  0  0  0                  
   -7.9043    3.3568  -11.2222 H   0  0  0  0  0  0                  
  1  2  1  0  0  0
  1  6  2  0  0  0
  1 23  1  0  0  0
  2  3  2  0  0  0
  2 24  1  0  0  0
  3  4  1  0  0  0
  3 21  1  0  0  0
  4  5  2  0  0  0
  4  8  1  0  0  0
  5  6  1  0  0  0
  5  7  1  0  0  0
  6 25  1  0  0  0
  8  9  2  0  0  0
  8 10  1  0  0  0
 10 11  1  0  0  0
 10 26  1  0  0  0
 11 12  1  0  0  0
 11 16  2  0  0  0
 12 13  2  0  0  0
 12 27  1  0  0  0
 13 14  1  0  0  0
 13 28  1  0  0  0
 14 15  2  0  0  0
 15 16  1  0  0  0
 15 17  1  0  0  0
 16 29  1  0  0  0
 17 18  1  0  0  0
 17 30  1  0  0  0
 18 19  2  0  0  0
 18 20  1  0  0  0
 20 22  1  0  0  0
 20 31  1  0  0  0
 20 32  1  0  0  0
M  END
> <r_user_dG.exp>
-9.54

$$$$
jmc_30
                    3D
 Structure written by MMmdl.
 37 39  0  0  1  0            999 V2000
    0.5262   -1.6430   -6.7261 C   0  0  0  0  0  0                  
    0.0451   -1.9892   -7.9853 C   0  0  0  0  0  0                  
   -1.3055   -2.2666   -8.1676 C   0  0  0  0  0  0                  
   -2.1928   -2.2089   -7.0775 C   0  0  0  0  0  0                  
   -1.6976   -1.8456   -5.8099 C   0  0  0  0  0  0                  
   -0.3453   -1.5727   -5.6478 C   0  0  0  0  0  0                  
   -2.7749   -1.7392   -4.4473 Cl  0  0  0  0  0  0                  
   -3.6348   -2.5183   -7.2152 C   0  0  0  0  0  0                  
   -4.0433   -3.5978   -6.8206 O   0  0  0  0  0  0                  
   -4.4425   -1.5733   -7.7344 N   0  0  0  0  0  0                  
   -5.8304   -1.5975   -7.9073 C   0  0  0  0  0  0                  
   -6.7185   -2.5243   -7.3268 C   0  0  0  0  0  0                  
   -8.0875   -2.3528   -7.5087 C   0  0  0  0  0  0                  
   -8.5615   -1.3381   -8.2262 N   0  0  0  0  0  0                  
   -7.7595   -0.4425   -8.8005 C   0  0  0  0  0  0                  
   -6.3788   -0.5287   -8.6082 C   0  0  0  0  0  0                  
   -8.3233    0.6365   -9.4907 N   0  0  0  0  0  0                  
   -7.7484    1.3585  -10.4886 C   0  0  0  0  0  0                  
   -6.6316    1.1242  -10.9205 O   0  0  0  0  0  0                  
   -8.5595    2.5050  -11.0403 C   0  0  1  0  0  0                  
   -7.8587    3.6034  -11.8463 C   0  0  0  0  0  0                  
   -8.7739    2.5981  -12.5476 C   0  0  1  0  0  0                  
   -8.1280    1.5417  -13.3943 C   0  0  0  0  0  0                  
   -1.8825   -2.6570   -9.7515 Cl  0  0  0  0  0  0                  
   -9.3790    2.8120  -10.3978 H   0  0  0  0  0  0                  
   -9.7346    2.9674  -12.9021 H   0  0  0  0  0  0                  
    1.5765   -1.4293   -6.5888 H   0  0  0  0  0  0                  
    0.7219   -2.0435   -8.8256 H   0  0  0  0  0  0                  
    0.0264   -1.3033   -4.6698 H   0  0  0  0  0  0                  
   -4.0528   -0.7015   -8.0635 H   0  0  0  0  0  0                  
   -6.3331   -3.3526   -6.7504 H   0  0  0  0  0  0                  
   -8.7830   -3.0494   -7.0641 H   0  0  0  0  0  0                  
   -5.7357    0.2415   -9.0079 H   0  0  0  0  0  0                  
   -9.2554    0.9524   -9.2609 H   0  0  0  0  0  0                  
   -8.1684    4.5810  -11.4752 H   0  0  0  0  0  0                  
   -6.7781    3.5002  -11.7399 H   0  0  0  0  0  0                  
   -7.4944    0.5058  -14.2246 N   0  0  0  0  0  0                  
  1  2  1  0  0  0
  1  6  2  0  0  0
  1 27  1  0  0  0
  2  3  2  0  0  0
  2 28  1  0  0  0
  3  4  1  0  0  0
  3 24  1  0  0  0
  4  5  2  0  0  0
  4  8  1  0  0  0
  5  6  1  0  0  0
  5  7  1  0  0  0
  6 29  1  0  0  0
  8  9  2  0  0  0
  8 10  1  0  0  0
 10 11  1  0  0  0
 10 30  1  0  0  0
 11 12  1  0  0  0
 11 16  2  0  0  0
 12 13  2  0  0  0
 12 31  1  0  0  0
 13 14  1  0  0  0
 13 32  1  0  0  0
 14 15  2  0  0  0
 15 16  1  0  0  0
 15 17  1  0  0  0
 16 33  1  0  0  0
 17 18  1  0  0  0
 17 34  1  0  0  0
 18 19  2  0  0  0
 18 20  1  0  0  0
 20 21  1  0  0  0
 20 22  1  0  0  0
 20 25  1  0  0  0
 21 22  1  0  0  0
 21 35  1  0  0  0
 21 36  1  0  0  0
 22 23  1  0  0  0
 22 26  1  0  0  0
 23 37  3  0  0  0
M  END
> <r_user_dG.exp>
-10.94

$$$$
ejm_50
                    3D
 Structure written by MMmdl.
 33 34  0  0  1  0            999 V2000
    0.5262   -1.6430   -6.7261 C   0  0  0  0  0  0                  
    0.0451   -1.9892   -7.9853 C   0  0  0  0  0  0                  
   -1.3055   -2.2666   -8.1676 C   0  0  0  0  0  0                  
   -2.1928   -2.2089   -7.0775 C   0  0  0  0  0  0                  
   -1.6976   -1.8456   -5.8099 C   0  0  0  0  0  0                  
   -0.3453   -1.5727   -5.6478 C   0  0  0  0  0  0                  
   -2.7749   -1.7392   -4.4473 Cl  0  0  0  0  0  0                  
   -3.6348   -2.5183   -7.2152 C   0  0  0  0  0  0                  
   -4.0433   -3.5978   -6.8206 O   0  0  0  0  0  0                  
   -4.4425   -1.5733   -7.7344 N   0  0  0  0  0  0                  
   -5.8304   -1.5975   -7.9073 C   0  0  0  0  0  0                  
   -6.7185   -2.5243   -7.3268 C   0  0  0  0  0  0                  
   -8.0875   -2.3528   -7.5087 C   0  0  0  0  0  0                  
   -8.5615   -1.3381   -8.2262 N   0  0  0  0  0  0                  
   -7.7595   -0.4425   -8.8005 C   0  0  0  0  0  0                  
   -6.3788   -0.5287   -8.6082 C   0  0  0  0  0  0                  
   -8.3233    0.6365   -9.4907 N   0  0  0  0  0  0                  
   -7.7484    1.3585  -10.4886 C   0  0  0  0  0  0                  
   -6.6316    1.1242  -10.9205 O   0  0  0  0  0  0                  
   -8.5595    2.5050  -11.0403 C   0  0  0  0  0  0                  
   -1.8825   -2.6570   -9.7515 Cl  0  0  0  0  0  0                  
   -9.6146    2.2789  -11.1593 H   0  0  0  0  0  0                  
    1.5765   -1.4293   -6.5888 H   0  0  0  0  0  0                  
    0.7219   -2.0435   -8.8256 H   0  0  0  0  0  0                  
    0.0264   -1.3033   -4.6698 H   0  0  0  0  0  0                  
   -4.0528   -0.7015   -8.0635 H   0  0  0  0  0  0                  
   -6.3331   -3.3526   -6.7504 H   0  0  0  0  0  0                  
   -8.7830   -3.0494   -7.0641 H   0  0  0  0  0  0                  
   -5.7357    0.2415   -9.0079 H   0  0  0  0  0  0                  
   -9.2554    0.9524   -9.2609 H   0  0  0  0  0  0                  
   -8.4469    3.3730  -10.3906 H   0  0  0  0  0  0                  
   -8.5736    3.7559  -12.7620 H   0  0  0  0  0  0                  
   -8.0029    2.9642  -12.3948 O   0  0  0  0  0  0                  
  1  2  1  0  0  0
  1  6  2  0  0  0
  1 23  1  0  0  0
  2  3  2  0  0  0
  2 24  1  0  0  0
  3  4  1  0  0  0
  3 21  1  0  0  0
  4  5  2  0  0  0
  4  8  1  0  0  0
  5  6  1  0  0  0
  5  7  1  0  0  0
  6 25  1  0  0  0
  8  9  2  0  0  0
  8 10  1  0  0  0
 10 11  1  0  0  0
 10 26  1  0  0  0
 11 12  1  0  0  0
 11 16  2  0  0  0
 12 13  2  0  0  0
 12 27  1  0  0  0
 13 14  1  0  0  0
 13 28  1  0  0  0
 14 15  2  0  0  0
 15 16  1  0  0  0
 15 17  1  0  0  0
 16 29  1  0  0  0
 17 18  1  0  0  0
 17 30  1  0  0  0
 18 19  2  0  0  0
 18 20  1  0  0  0
 20 22  1  0  0  0
 20 31  1  0  0  0
 20 33  1  0  0  0
 32 33  1  0  0  0
M  END
> <r_user_dG.exp>
-8.98

$$$$
ejm_46
                    3D
 Structure written by MMmdl.
 36 38  0  0  1  0            999 V2000
    0.5262   -1.6430   -6.7261 C   0  0  0  0  0  0                  
    0.0451   -1.9892   -7.9853 C   0  0  0  0  0  0                  
   -1.3055   -2.2666   -8.1676 C   0  0  0  0  0  0                  
   -2.1928   -2.2089   -7.0775 C   0  0  0  0  0  0                  
   -1.6976   -1.8456   -5.8099 C   0  0  0  0  0  0                  
   -0.3453   -1.5727   -5.6478 C   0  0  0  0  0  0                  
   -2.7749   -1.7392   -4.4473 Cl  0  0  0  0  0  0                  
   -3.6348   -2.5183   -7.2152 C   0  0  0  0  0  0                  
   -4.0433   -3.5978   -6.8206 O   0  0  0  0  0  0                  
   -4.4425   -1.5733   -7.7344 N   0  0  0  0  0  0                  
   -5.8304   -1.5975   -7.9073 C   0  0  0  0  0  0                  
   -6.7185   -2.5243   -7.3268 C   0  0  0  0  0  0                  
   -8.0875   -2.3528   -7.5087 C   0  0  0  0  0  0                  
   -8.5615   -1.3381   -8.2262 N   0  0  0  0  0  0                  
   -7.7595   -0.4425   -8.8005 C   0  0  0  0  0  0                  
   -6.3788   -0.5287   -8.6082 C   0  0  0  0  0  0                  
   -8.3233    0.6365   -9.4907 N   0  0  0  0  0  0                  
   -7.7484    1.3585  -10.4886 C   0  0  0  0  0  0                  
   -6.6316    1.1242  -10.9205 O   0  0  0  0  0  0                  
   -8.5595    2.5050  -11.0403 C   0  0  0  0  0  0                  
   -7.8587    3.6034  -11.8463 C   0  0  0  0  0  0                  
   -8.7739    2.5981  -12.5476 C   0  0  0  0  0  0                  
   -8.3045    1.8305  -13.1629 H   0  0  0  0  0  0                  
   -1.8825   -2.6570   -9.7515 Cl  0  0  0  0  0  0                  
   -9.3790    2.8120  -10.3978 H   0  0  0  0  0  0                  
   -9.7346    2.9674  -12.9021 H   0  0  0  0  0  0                  
    1.5765   -1.4293   -6.5888 H   0  0  0  0  0  0                  
    0.7219   -2.0435   -8.8256 H   0  0  0  0  0  0                  
    0.0264   -1.3033   -4.6698 H   0  0  0  0  0  0                  
   -4.0528   -0.7015   -8.0635 H   0  0  0  0  0  0                  
   -6.3331   -3.3526   -6.7504 H   0  0  0  0  0  0                  
   -8.7830   -3.0494   -7.0641 H   0  0  0  0  0  0                  
   -5.7357    0.2415   -9.0079 H   0  0  0  0  0  0                  
   -9.2554    0.9524   -9.2609 H   0  0  0  0  0  0                  
   -8.1684    4.5810  -11.4752 H   0  0  0  0  0  0                  
   -6.7781    3.5002  -11.7399 H   0  0  0  0  0  0                  
  1  2  1  0  0  0
  1  6  2  0  0  0
  1 27  1  0  0  0
  2  3  2  0  0  0
  2 28  1  0  0  0
  3  4  1  0  0  0
  3 24  1  0  0  0
  4  5  2  0  0  0
  4  8  1  0  0  0
  5  6  1  0  0  0
  5  7  1  0  0  0
  6 29  1  0  0  0
  8  9  2  0  0  0
  8 10  1  0  0  0
 10 11  1  0  0  0
 10 30  1  0  0  0
 11 12  1  0  0  0
 11 16  2  0  0  0
 12 13  2  0  0  0
 12 31  1  0  0  0
 13 14  1  0  0  0
 13 32  1  0  0  0
 14 15  2  0  0  0
 15 16  1  0  0  0
 15 17  1  0  0  0
 16 33  1  0  0  0
 17 18  1  0  0  0
 17 34  1  0  0  0
 18 19  2  0  0  0
 18 20  1  0  0  0
 20 21  1  0  0  0
 20 22  1  0  0  0
 20 25  1  0  0  0
 21 22  1  0  0  0
 21 35  1  0  0  0
 21 36  1  0  0  0
 22 23  1  0  0  0
 22 26  1  0  0  0
M  END
> <r_user_dG.exp>
-11.31

$$$$
ejm_55
                    3D
 Structure written by MMmdl.
 33 34  0  0  1  0            999 V2000
    0.5262   -1.6430   -6.7261 C   0  0  0  0  0  0                  
    0.0451   -1.9892   -7.9853 C   0  0  0  0  0  0                  
   -1.3055   -2.2666   -8.1676 C   0  0  0  0  0  0                  
   -2.1928   -2.2089   -7.0775 C   0  0  0  0  0  0                  
   -1.6976   -1.8456   -5.8099 C   0  0  0  0  0  0                  
   -0.3453   -1.5727   -5.6478 C   0  0  0  0  0  0                  
   -2.7749   -1.7392   -4.4473 Cl  0  0  0  0  0  0                  
   -3.6348   -2.5183   -7.2152 C   0  0  0  0  0  0                  
   -4.0433   -3.5978   -6.8206 O   0  0  0  0  0  0                  
   -4.4425   -1.5733   -7.7344 N   0  0  0  0  0  0                  
   -5.8304   -1.5975   -7.9073 C   0  0  0  0  0  0                  
   -6.7185   -2.5243   -7.3268 C   0  0  0  0  0  0                  
   -8.0875   -2.3528   -7.5087 C   0  0  0  0  0  0                  
   -8.5615   -1.3381   -8.2262 N   0  0  0  0  0  0                  
   -7.7595   -0.4425   -8.8005 C   0  0  0  0  0  0                  
   -6.3788   -0.5287   -8.6082 C   0  0  0  0  0  0                  
   -8.3233    0.6365   -9.4907 N   0  0  0  0  0  0                  
   -7.7484    1.3585  -10.4886 C   0  0  0  0  0  0                  
   -6.6316    1.1242  -10.9205 O   0  0  0  0  0  0                  
   -1.8825   -2.6570   -9.7515 Cl  0  0  0  0  0  0                  
    1.5765   -1.4293   -6.5888 H   0  0  0  0  0  0                  
    0.7219   -2.0435   -8.8256 H   0  0  0  0  0  0                  
    0.0264   -1.3033   -4.6698 H   0  0  0  0  0  0                  
   -4.0528   -0.7015   -8.0635 H   0  0  0  0  0  0                  
   -6.3331   -3.3526   -6.7504 H   0  0  0  0  0  0                  
   -8.7830   -3.0494   -7.0641 H   0  0  0  0  0  0                  
   -5.7357    0.2415   -9.0079 H   0  0  0  0  0  0                  
   -9.2554    0.9524   -9.2609 H   0  0  0  0  0  0                  
   -8.0918    3.0222  -12.3610 C   0  0  0  0  0  0                  
   -8.8717    3.6405  -12.8054 H   0  0  0  0  0  0                  
   -7.1957    3.6233  -12.2072 H   0  0  0  0  0  0                  
   -8.5733    2.5095  -11.0287 O   0  0  0  0  0  0                  
   -7.8654    2.1835  -13.0195 H   0  0  0  0  0  0                  
  1  2  1  0  0  0
  1  6  2  0  0  0
  1 21  1  0  0  0
  2  3  2  0  0  0
  2 22  1  0  0  0
  3  4  1  0  0  0
  3 20  1  0  0  0
  4  5  2  0  0  0
  4  8  1  0  0  0
  5  6  1  0  0  0
  5  7  1  0  0  0
  6 23  1  0  0  0
  8  9  2  0  0  0
  8 10  1  0  0  0
 10 11  1  0  0  0
 10 24  1  0  0  0
 11 12  1  0  0  0
 11 16  2  0  0  0
 12 13  2  0  0  0
 12 25  1  0  0  0
 13 14  1  0  0  0
 13 26  1  0  0  0
 14 15  2  0  0  0
 15 16  1  0  0  0
 15 17  1  0  0  0
 16 27  1  0  0  0
 17 18  1  0  0  0
 17 28  1  0  0  0
 18 19  2  0  0  0
 18 32  1  0  0  0
 29 30  1  0  0  0
 29 31  1  0  0  0
 29 32  1  0  0  0
 29 33  1  0  0  0
M  END
> <r_user_dG.exp>
-9.21

$$$$
ejm_43
                    3D
 Structure written by MMmdl.
 38 39  0  0  1  0            999 V2000
    0.5262   -1.6430   -6.7261 C   0  0  0  0  0  0                  
    0.0451   -1.9892   -7.9853 C   0  0  0  0  0  0                  
   -1.3055   -2.2666   -8.1676 C   0  0  0  0  0  0                  
   -2.1928   -2.2089   -7.0775 C   0  0  0  0  0  0                  
   -1.6976   -1.8456   -5.8099 C   0  0  0  0  0  0                  
   -0.3453   -1.5727   -5.6478 C   0  0  0  0  0  0                  
   -2.7749   -1.7392   -4.4473 Cl  0  0  0  0  0  0                  
   -3.6348   -2.5183   -7.2152 C   0  0  0  0  0  0                  
   -4.0433   -3.5978   -6.8206 O   0  0  0  0  0  0                  
   -4.4425   -1.5733   -7.7344 N   0  0  0  0  0  0                  
   -5.8304   -1.5975   -7.9073 C   0  0  0  0  0  0                  
   -6.7185   -2.5243   -7.3268 C   0  0  0  0  0  0                  
   -8.0875   -2.3528   -7.5087 C   0  0  0  0  0  0                  
   -8.5615   -1.3381   -8.2262 N   0  0  0  0  0  0                  
   -7.7595   -0.4425   -8.8005 C   0  0  0  0  0  0                  
   -6.3788   -0.5287   -8.6082 C   0  0  0  0  0  0                  
   -8.3233    0.6365   -9.4907 N   0  0  0  0  0  0                  
   -7.7484    1.3585  -10.4886 C   0  0  0  0  0  0                  
   -6.6316    1.1242  -10.9205 O   0  0  0  0  0  0                  
   -8.5595    2.5050  -11.0403 C   0  0  0  0  0  0                  
   -1.8825   -2.6570   -9.7515 Cl  0  0  0  0  0  0                  
  -10.0174    2.1927  -11.2048 C   0  0  0  0  0  0                  
    1.5765   -1.4293   -6.5888 H   0  0  0  0  0  0                  
    0.7219   -2.0435   -8.8256 H   0  0  0  0  0  0                  
    0.0264   -1.3033   -4.6698 H   0  0  0  0  0  0                  
   -4.0528   -0.7015   -8.0635 H   0  0  0  0  0  0                  
   -6.3331   -3.3526   -6.7504 H   0  0  0  0  0  0                  
   -8.7830   -3.0494   -7.0641 H   0  0  0  0  0  0                  
   -5.7357    0.2415   -9.0079 H   0  0  0  0  0  0                  
   -9.2554    0.9524   -9.2609 H   0  0  0  0  0  0                  
   -7.9892    2.9276  -12.3616 C   0  0  0  0  0  0                  
   -8.4469    3.3730  -10.3906 H   0  0  0  0  0  0                  
   -8.5736    3.7559  -12.7620 H   0  0  0  0  0  0                  
   -6.9551    3.2450  -12.2268 H   0  0  0  0  0  0                  
   -8.0236    2.0894  -13.0576 H   0  0  0  0  0  0                  
  -10.5335    3.0650  -11.6055 H   0  0  0  0  0  0                  
  -10.1346    1.3544  -11.8916 H   0  0  0  0  0  0                  
  -10.4449    1.9310  -10.2369 H   0  0  0  0  0  0                  
  1  2  1  0  0  0
  1  6  2  0  0  0
  1 23  1  0  0  0
  2  3  2  0  0  0
  2 24  1  0  0  0
  3  4  1  0  0  0
  3 21  1  0  0  0
  4  5  2  0  0  0
  4  8  1  0  0  0
  5  6  1  0  0  0
  5  7  1  0  0  0
  6 25  1  0  0  0
  8  9  2  0  0  0
  8 10  1  0  0  0
 10 11  1  0  0  0
 10 26  1  0  0  0
 11 12  1  0  0  0
 11 16  2  0  0  0
 12 13  2  0  0  0
 12 27  1  0  0  0
 13 14  1  0  0  0
 13 28  1  0  0  0
 14 15  2  0  0  0
 15 16  1  0  0  0
 15 17  1  0  0  0
 16 29  1  0  0  0
 17 18  1  0  0  0
 17 30  1  0  0  0
 18 19  2  0  0  0
 18 20  1  0  0  0
 20 22  1  0  0  0
 20 31  1  0  0  0
 20 32  1  0  0  0
 22 36  1  0  0  0
 22 37  1  0  0  0
 22 38  1  0  0  0
 31 33  1  0  0  0
 31 34  1  0  0  0
 31 35  1  0  0  0
M  END
> <r_user_dG.exp>
-8.26

$$$$
jmc_28
                    3D
 Structure written by MMmdl.
 39 41  0  0  1  0            999 V2000
    0.5262   -1.6430   -6.7261 C   0  0  0  0  0  0                  
    0.0451   -1.9892   -7.9853 C   0  0  0  0  0  0                  
   -1.3055   -2.2666   -8.1676 C   0  0  0  0  0  0                  
   -2.1928   -2.2089   -7.0775 C   0  0  0  0  0  0                  
   -1.6976   -1.8456   -5.8099 C   0  0  0  0  0  0                  
   -0.3453   -1.5727   -5.6478 C   0  0  0  0  0  0                  
   -2.7749   -1.7392   -4.4473 Cl  0  0  0  0  0  0                  
   -3.6348   -2.5183   -7.2152 C   0  0  0  0  0  0                  
   -4.0433   -3.5978   -6.8206 O   0  0  0  0  0  0                  
   -4.4425   -1.5733   -7.7344 N   0  0  0  0  0  0                  
   -5.8304   -1.5975   -7.9073 C   0  0  0  0  0  0                  
   -6.7185   -2.5243   -7.3268 C   0  0  0  0  0  0                  
   -8.0875   -2.3528   -7.5087 C   0  0  0  0  0  0                  
   -8.5615   -1.3381   -8.2262 N   0  0  0  0  0  0                  
   -7.7595   -0.4425   -8.8005 C   0  0  0  0  0  0                  
   -6.3788   -0.5287   -8.6082 C   0  0  0  0  0  0                  
   -8.3233    0.6365   -9.4907 N   0  0  0  0  0  0                  
   -7.7484    1.3585  -10.4886 C   0  0  0  0  0  0                  
   -6.6316    1.1242  -10.9205 O   0  0  0  0  0  0                  
   -8.5595    2.5050  -11.0403 C   0  0  1  0  0  0                  
   -7.8587    3.6034  -11.8463 C   0  0  0  0  0  0                  
   -8.7739    2.5981  -12.5476 C   0  0  1  0  0  0                  
   -8.1280    1.5417  -13.3943 C   0  0  0  0  0  0                  
   -1.8825   -2.6570   -9.7515 Cl  0  0  0  0  0  0                  
   -9.3790    2.8120  -10.3978 H   0  0  0  0  0  0                  
   -9.7346    2.9674  -12.9021 H   0  0  0  0  0  0                  
    1.5765   -1.4293   -6.5888 H   0  0  0  0  0  0                  
    0.7219   -2.0435   -8.8256 H   0  0  0  0  0  0                  
    0.0264   -1.3033   -4.6698 H   0  0  0  0  0  0                  
   -4.0528   -0.7015   -8.0635 H   0  0  0  0  0  0                  
   -6.3331   -3.3526   -6.7504 H   0  0  0  0  0  0                  
   -8.7830   -3.0494   -7.0641 H   0  0  0  0  0  0                  
   -5.7357    0.2415   -9.0079 H   0  0  0  0  0  0                  
   -9.2554    0.9524   -9.2609 H   0  0  0  0  0  0                  
   -8.1684    4.5810  -11.4752 H   0  0  0  0  0  0                  
   -6.7781    3.5002  -11.7399 H   0  0  0  0  0  0                  
   -8.3589    1.7249  -14.4437 H   0  0  0  0  0  0                  
   -7.0478    1.5702  -13.2503 H   0  0  0  0  0  0                  
   -8.5068    0.5615  -13.1051 H   0  0  0  0  0  0                  
  1  2  1  0  0  0
  1  6  2  0  0  0
  1 27  1  0  0  0
  2  3  2  0  0  0
  2 28  1  0  0  0
  3  4  1  0  0  0
  3 24  1  0  0  0
  4  5  2  0  0  0
  4  8  1  0  0  0
  5  6  1  0  0  0
  5  7  1  0  0  0
  6 29  1  0  0  0
  8  9  2  0  0  0
  8 10  1  0  0  0
 10 11  1  0  0  0
 10 30  1  0  0  0
 11 12  1  0  0  0
 11 16  2  0  0  0
 12 13  2  0  0  0
 12 31  1  0  0  0
 13 14  1  0  0  0
 13 32  1  0  0  0
 14 15  2  0  0  0
 15 16  1  0  0  0
 15 17  1  0  0  0
 16 33  1  0  0  0
 17 18  1  0  0  0
 17 34  1  0  0  0
 18 19  2  0  0  0
 18 20  1  0  0  0
 20 21  1  0  0  0
 20 22  1  0  0  0
 20 25  1  0  0  0
 21 22  1  0  0  0
 21 35  1  0  0  0
 21 36  1  0  0  0
 22 23  1  0  0  0
 22 26  1  0  0  0
 23 37  1  0  0  0
 23 38  1  0  0  0
 23 39  1  0  0  0
M  END
> <r_user_dG.exp>
-10.98

$$$$
ejm_49
                    3D
 Structure written by MMmdl.
 39 41  0  0  1  0            999 V2000
    0.5262   -1.6430   -6.7261 C   0  0  0  0  0  0                  
    0.0451   -1.9892   -7.9853 C   0  0  0  0  0  0                  
   -1.3055   -2.2666   -8.1676 C   0  0  0  0  0  0                  
   -2.1928   -2.2089   -7.0775 C   0  0  0  0  0  0                  
   -1.6976   -1.8456   -5.8099 C   0  0  0  0  0  0                  
   -0.3453   -1.5727   -5.6478 C   0  0  0  0  0  0                  
   -2.7749   -1.7392   -4.4473 Cl  0  0  0  0  0  0                  
   -3.6348   -2.5183   -7.2152 C   0  0  0  0  0  0                  
   -4.0433   -3.5978   -6.8206 O   0  0  0  0  0  0                  
   -4.4425   -1.5733   -7.7344 N   0  0  0  0  0  0                  
   -5.8304   -1.5975   -7.9073 C   0  0  0  0  0  0                  
   -6.7185   -2.5243   -7.3268 C   0  0  0  0  0  0                  
   -8.0875   -2.3528   -7.5087 C   0  0  0  0  0  0                  
   -8.5615   -1.3381   -8.2262 N   0  0  0  0  0  0                  
   -7.7595   -0.4425   -8.8005 C   0  0  0  0  0  0                  
   -6.3788   -0.5287   -8.6082 C   0  0  0  0  0  0                  
   -8.3233    0.6365   -9.4907 N   0  0  0  0  0  0                  
   -7.7484    1.3585  -10.4886 C   0  0  0  0  0  0                  
   -6.6316    1.1242  -10.9205 O   0  0  0  0  0  0                  
   -1.8825   -2.6570   -9.7515 Cl  0  0  0  0  0  0                  
    1.5765   -1.4293   -6.5888 H   0  0  0  0  0  0                  
    0.7219   -2.0435   -8.8256 H   0  0  0  0  0  0                  
    0.0264   -1.3033   -4.6698 H   0  0  0  0  0  0                  
   -4.0528   -0.7015   -8.0635 H   0  0  0  0  0  0                  
   -6.3331   -3.3526   -6.7504 H   0  0  0  0  0  0                  
   -8.7830   -3.0494   -7.0641 H   0  0  0  0  0  0                  
   -5.7357    0.2415   -9.0079 H   0  0  0  0  0  0                  
   -9.2554    0.9524   -9.2609 H   0  0  0  0  0  0                  
   -9.9658    4.6555  -12.2258 C   0  0  0  0  0  0                  
  -10.6156    3.4420  -11.9464 C   0  0  0  0  0  0                  
   -9.8974    2.3741  -11.3837 C   0  0  0  0  0  0                  
   -8.5295    2.5198  -11.1006 C   0  0  0  0  0  0                  
   -7.8797    3.7333  -11.3799 C   0  0  0  0  0  0                  
   -8.5979    4.8012  -11.9426 C   0  0  0  0  0  0                  
  -10.5301    5.4944  -12.6678 H   0  0  0  0  0  0                  
  -11.6903    3.3276  -12.1689 H   0  0  0  0  0  0                  
  -10.4078    1.4209  -11.1642 H   0  0  0  0  0  0                  
   -6.8051    3.8476  -11.1574 H   0  0  0  0  0  0                  
   -8.0874    5.7544  -12.1621 H   0  0  0  0  0  0                  
  1  2  1  0  0  0
  1  6  2  0  0  0
  1 21  1  0  0  0
  2  3  2  0  0  0
  2 22  1  0  0  0
  3  4  1  0  0  0
  3 20  1  0  0  0
  4  5  2  0  0  0
  4  8  1  0  0  0
  5  6  1  0  0  0
  5  7  1  0  0  0
  6 23  1  0  0  0
  8  9  2  0  0  0
  8 10  1  0  0  0
 10 11  1  0  0  0
 10 24  1  0  0  0
 11 12  1  0  0  0
 11 16  2  0  0  0
 12 13  2  0  0  0
 12 25  1  0  0  0
 13 14  1  0  0  0
 13 26  1  0  0  0
 14 15  2  0  0  0
 15 16  1  0  0  0
 15 17  1  0  0  0
 16 27  1  0  0  0
 17 18  1  0  0  0
 17 28  1  0  0  0
 18 19  2  0  0  0
 18 32  1  0  0  0
 29 30  2  0  0  0
 29 34  1  0  0  0
 29 35  1  0  0  0
 30 31  1  0  0  0
 30 36  1  0  0  0
 31 32  2  0  0  0
 31 37  1  0  0  0
 32 33  1  0  0  0
 33 34  2  0  0  0
 33 38  1  0  0  0
 34 39  1  0  0  0
M  END
> <r_user_dG.exp>
-7.75

$$$$
ejm_45
                    3D
 Structure written by MMmdl.
 39 41  0  0  1  0            999 V2000
    0.5262   -1.6430   -6.7261 C   0  0  0  0  0  0                  
    0.0451   -1.9892   -7.9853 C   0  0  0  0  0  0                  
   -1.3055   -2.2666   -8.1676 C   0  0  0  0  0  0                  
   -2.1928   -2.2089   -7.0775 C   0  0  0  0  0  0                  
   -1.6976   -1.8456   -5.8099 C   0  0  0  0  0  0                  
   -0.3453   -1.5727   -5.6478 C   0  0  0  0  0  0                  
   -2.7749   -1.7392   -4.4473 Cl  0  0  0  0  0  0                  
   -3.6348   -2.5183   -7.2152 C   0  0  0  0  0  0                  
   -4.0433   -3.5978   -6.8206 O   0  0  0  0  0  0                  
   -4.4425   -1.5733   -7.7344 N   0  0  0  0  0  0                  
   -5.8304   -1.5975   -7.9073 C   0  0  0  0  0  0                  
   -6.7185   -2.5243   -7.3268 C   0  0  0  0  0  0                  
   -8.0875   -2.3528   -7.5087 C   0  0  0  0  0  0                  
   -8.5615   -1.3381   -8.2262 N   0  0  0  0  0  0                  
   -7.7595   -0.4425   -8.8005 C   0  0  0  0  0  0                  
   -6.3788   -0.5287   -8.6082 C   0  0  0  0  0  0                  
   -8.3233    0.6365   -9.4907 N   0  0  0  0  0  0                  
   -7.7484    1.3585  -10.4886 C   0  0  0  0  0  0                  
   -6.6316    1.1242  -10.9205 O   0  0  0  0  0  0                  
   -8.5595    2.5050  -11.0403 C   0  0  0  0  0  0                  
   -1.8825   -2.6570   -9.7515 Cl  0  0  0  0  0  0                  
   -9.6146    2.2789  -11.1593 H   0  0  0  0  0  0                  
    1.5765   -1.4293   -6.5888 H   0  0  0  0  0  0                  
    0.7219   -2.0435   -8.8256 H   0  0  0  0  0  0                  
    0.0264   -1.3033   -4.6698 H   0  0  0  0  0  0                  
   -4.0528   -0.7015   -8.0635 H   0  0  0  0  0  0                  
   -6.3331   -3.3526   -6.7504 H   0  0  0  0  0  0                  
   -8.7830   -3.0494   -7.0641 H   0  0  0  0  0  0                  
   -5.7357    0.2415   -9.0079 H   0  0  0  0  0  0                  
   -9.2554    0.9524   -9.2609 H   0  0  0  0  0  0                  
   -8.4469    3.3730  -10.3906 H   0  0  0  0  0  0                  
   -8.5736    3.7559  -12.7620 H   0  0  0  0  0  0                  
   -8.0315    2.9425  -12.3279 C   0  0  0  0  0  0                  
   -6.5409    2.8702  -12.5310 C   0  0  0  0  0  0                  
   -7.4450    1.8923  -13.2341 C   0  0  0  0  0  0                  
   -6.0957    3.6693  -13.1690 H   0  0  0  0  0  0                  
   -5.9510    2.4626  -11.6768 H   0  0  0  0  0  0                  
   -7.5861    2.0572  -14.3281 H   0  0  0  0  0  0                  
   -7.4414    0.8505  -12.8359 H   0  0  0  0  0  0                  
  1  2  1  0  0  0
  1  6  2  0  0  0
  1 23  1  0  0  0
  2  3  2  0  0  0
  2 24  1  0  0  0
  3  4  1  0  0  0
  3 21  1  0  0  0
  4  5  2  0  0  0
  4  8  1  0  0  0
  5  6  1  0  0  0
  5  7  1  0  0  0
  6 25  1  0  0  0
  8  9  2  0  0  0
  8 10  1  0  0  0
 10 11  1  0  0  0
 10 26  1  0  0  0
 11 12  1  0  0  0
 11 16  2  0  0  0
 12 13  2  0  0  0
 12 27  1  0  0  0
 13 14  1  0  0  0
 13 28  1  0  0  0
 14 15  2  0  0  0
 15 16  1  0  0  0
 15 17  1  0  0  0
 16 29  1  0  0  0
 17 18  1  0  0  0
 17 30  1  0  0  0
 18 19  2  0  0  0
 18 20  1  0  0  0
 20 22  1  0  0  0
 20 31  1  0  0  0
 20 33  1  0  0  0
 32 33  1  0  0  0
 33 34  1  0  0  0
 33 35  1  0  0  0
 34 35  1  0  0  0
 34 36  1  0  0  0
 34 37  1  0  0  0
 35 38  1  0  0  0
 35 39  1  0  0  0
M  END
> <r_user_dG.exp>
-9.56

$$$$
ejm_44
                    3D
 Structure written by MMmdl.
 41 42  0  0  1  0            999 V2000
    0.5262   -1.6430   -6.7261 C   0  0  0  0  0  0                  
    0.0451   -1.9892   -7.9853 C   0  0  0  0  0  0                  
   -1.3055   -2.2666   -8.1676 C   0  0  0  0  0  0                  
   -2.1928   -2.2089   -7.0775 C   0  0  0  0  0  0                  
   -1.6976   -1.8456   -5.8099 C   0  0  0  0  0  0                  
   -0.3453   -1.5727   -5.6478 C   0  0  0  0  0  0                  
   -2.7749   -1.7392   -4.4473 Cl  0  0  0  0  0  0                  
   -3.6348   -2.5183   -7.2152 C   0  0  0  0  0  0                  
   -4.0433   -3.5978   -6.8206 O   0  0  0  0  0  0                  
   -4.4425   -1.5733   -7.7344 N   0  0  0  0  0  0                  
   -5.8304   -1.5975   -7.9073 C   0  0  0  0  0  0                  
   -6.7185   -2.5243   -7.3268 C   0  0  0  0  0  0                  
   -8.0875   -2.3528   -7.5087 C   0  0  0  0  0  0                  
   -8.5615   -1.3381   -8.2262 N   0  0  0  0  0  0                  
   -7.7595   -0.4425   -8.8005 C   0  0  0  0  0  0                  
   -6.3788   -0.5287   -8.6082 C   0  0  0  0  0  0                  
   -8.3233    0.6365   -9.4907 N   0  0  0  0  0  0                  
   -7.7484    1.3585  -10.4886 C   0  0  0  0  0  0                  
   -6.6316    1.1242  -10.9205 O   0  0  0  0  0  0                  
   -8.5595    2.5050  -11.0403 C   0  0  0  0  0  0                  
   -1.8825   -2.6570   -9.7515 Cl  0  0  0  0  0  0                  
  -10.0174    2.1927  -11.2048 C   0  0  0  0  0  0                  
    1.5765   -1.4293   -6.5888 H   0  0  0  0  0  0                  
    0.7219   -2.0435   -8.8256 H   0  0  0  0  0  0                  
    0.0264   -1.3033   -4.6698 H   0  0  0  0  0  0                  
   -4.0528   -0.7015   -8.0635 H   0  0  0  0  0  0                  
   -6.3331   -3.3526   -6.7504 H   0  0  0  0  0  0                  
   -8.7830   -3.0494   -7.0641 H   0  0  0  0  0  0                  
   -5.7357    0.2415   -9.0079 H   0  0  0  0  0  0                  
   -9.2554    0.9524   -9.2609 H   0  0  0  0  0  0                  
   -7.9892    2.9276  -12.3616 C   0  0  0  0  0  0                  
   -8.4045    3.6995  -10.1462 C   0  0  0  0  0  0                  
   -8.5736    3.7559  -12.7620 H   0  0  0  0  0  0                  
   -6.9551    3.2450  -12.2268 H   0  0  0  0  0  0                  
   -8.0236    2.0894  -13.0576 H   0  0  0  0  0  0                  
  -10.5335    3.0650  -11.6055 H   0  0  0  0  0  0                  
  -10.1346    1.3544  -11.8916 H   0  0  0  0  0  0                  
  -10.4449    1.9310  -10.2369 H   0  0  0  0  0  0                  
   -8.9897    4.5291  -10.5428 H   0  0  0  0  0  0                  
   -8.7573    3.4527   -9.1448 H   0  0  0  0  0  0                  
   -7.3538    3.9858  -10.1005 H   0  0  0  0  0  0                  
  1  2  1  0  0  0
  1  6  2  0  0  0
  1 23  1  0  0  0
  2  3  2  0  0  0
  2 24  1  0  0  0
  3  4  1  0  0  0
  3 21  1  0  0  0
  4  5  2  0  0  0
  4  8  1  0  0  0
  5  6  1  0  0  0
  5  7  1  0  0  0
  6 25  1  0  0  0
  8  9  2  0  0  0
  8 10  1  0  0  0
 10 11  1  0  0  0
 10 26  1  0  0  0
 11 12  1  0  0  0
 11 16  2  0  0  0
 12 13  2  0  0  0
 12 27  1  0  0  0
 13 14  1  0  0  0
 13 28  1  0  0  0
 14 15  2  0  0  0
 15 16  1  0  0  0
 15 17  1  0  0  0
 16 29  1  0  0  0
 17 18  1  0  0  0
 17 30  1  0  0  0
 18 19  2  0  0  0
 18 20  1  0  0  0
 20 22  1  0  0  0
 20 31  1  0  0  0
 20 32  1  0  0  0
 22 36  1  0  0  0
 22 37  1  0  0  0
 22 38  1  0  0  0
 31 33  1  0  0  0
 31 34  1  0  0  0
 31 35  1  0  0  0
 32 39  1  0  0  0
 32 40  1  0  0  0
 32 41  1  0  0  0
M  END
> <r_user_dG.exp>
-7.42

$$$$
jmc_27
                    3D
 Structure written by MMmdl.
 36 38  0  0  1  0            999 V2000
    0.5262   -1.6430   -6.7261 C   0  0  0  0  0  0                  
    0.0451   -1.9892   -7.9853 C   0  0  0  0  0  0                  
   -1.3055   -2.2666   -8.1676 C   0  0  0  0  0  0                  
   -2.1928   -2.2089   -7.0775 C   0  0  0  0  0  0                  
   -1.6976   -1.8456   -5.8099 C   0  0  0  0  0  0                  
   -0.3453   -1.5727   -5.6478 C   0  0  0  0  0  0                  
   -2.7749   -1.7392   -4.4473 Cl  0  0  0  0  0  0                  
   -3.6348   -2.5183   -7.2152 C   0  0  0  0  0  0                  
   -4.0433   -3.5978   -6.8206 O   0  0  0  0  0  0                  
   -4.4425   -1.5733   -7.7344 N   0  0  0  0  0  0                  
   -5.8304   -1.5975   -7.9073 C   0  0  0  0  0  0                  
   -6.7185   -2.5243   -7.3268 C   0  0  0  0  0  0                  
   -8.0875   -2.3528   -7.5087 C   0  0  0  0  0  0                  
   -8.5615   -1.3381   -8.2262 N   0  0  0  0  0  0                  
   -7.7595   -0.4425   -8.8005 C   0  0  0  0  0  0                  
   -6.3788   -0.5287   -8.6082 C   0  0  0  0  0  0                  
   -8.3233    0.6365   -9.4907 N   0  0  0  0  0  0                  
   -7.7484    1.3585  -10.4886 C   0  0  0  0  0  0                  
   -6.6316    1.1242  -10.9205 O   0  0  0  0  0  0                  
   -8.5595    2.5050  -11.0403 C   0  0  1  0  0  0                  
   -7.8587    3.6034  -11.8463 C   0  0  0  0  0  0                  
   -8.7739    2.5981  -12.5476 C   0  0  1  0  0  0                  
   -8.0008    1.3340  -13.5608 Cl  0  0  0  0  0  0                  
   -1.8825   -2.6570   -9.7515 Cl  0  0  0  0  0  0                  
   -9.3790    2.8120  -10.3978 H   0  0  0  0  0  0                  
   -9.7346    2.9674  -12.9021 H   0  0  0  0  0  0                  
    1.5765   -1.4293   -6.5888 H   0  0  0  0  0  0                  
    0.7219   -2.0435   -8.8256 H   0  0  0  0  0  0                  
    0.0264   -1.3033   -4.6698 H   0  0  0  0  0  0                  
   -4.0528   -0.7015   -8.0635 H   0  0  0  0  0  0                  
   -6.3331   -3.3526   -6.7504 H   0  0  0  0  0  0                  
   -8.7830   -3.0494   -7.0641 H   0  0  0  0  0  0                  
   -5.7357    0.2415   -9.0079 H   0  0  0  0  0  0                  
   -9.2554    0.9524   -9.2609 H   0  0  0  0  0  0                  
   -8.1684    4.5810  -11.4752 H   0  0  0  0  0  0                  
   -6.7781    3.5002  -11.7399 H   0  0  0  0  0  0                  
  1  2  1  0  0  0
  1  6  2  0  0  0
  1 27  1  0  0  0
  2  3  2  0  0  0
  2 28  1  0  0  0
  3  4  1  0  0  0
  3 24  1  0  0  0
  4  5  2  0  0  0
  4  8  1  0  0  0
  5  6  1  0  0  0
  5  7  1  0  0  0
  6 29  1  0  0  0
  8  9  2  0  0  0
  8 10  1  0  0  0
 10 11  1  0  0  0
 10 30  1  0  0  0
 11 12  1  0  0  0
 11 16  2  0  0  0
 12 13  2  0  0  0
 12 31  1  0  0  0
 13 14  1  0  0  0
 13 32  1  0  0  0
 14 15  2  0  0  0
 15 16  1  0  0  0
 15 17  1  0  0  0
 16 33  1  0  0  0
 17 18  1  0  0  0
 17 34  1  0  0  0
 18 19  2  0  0  0
 18 20  1  0  0  0
 20 21  1  0  0  0
 20 22  1  0  0  0
 20 25  1  0  0  0
 21 22  1  0  0  0
 21 35  1  0  0  0
 21 36  1  0  0  0
 22 23  1  0  0  0
 22 26  1  0  0  0
M  END
> <i_m_stars>
2

> <r_user_dG.exp>
-11.28

$$$$
ejm_48
                    3D
 Structure written by MMmdl.
 42 44  0  0  1  0            999 V2000
    0.5262   -1.6430   -6.7261 C   0  0  0  0  0  0                  
    0.0451   -1.9892   -7.9853 C   0  0  0  0  0  0                  
   -1.3055   -2.2666   -8.1676 C   0  0  0  0  0  0                  
   -2.1928   -2.2089   -7.0775 C   0  0  0  0  0  0                  
   -1.6976   -1.8456   -5.8099 C   0  0  0  0  0  0                  
   -0.3453   -1.5727   -5.6478 C   0  0  0  0  0  0                  
   -2.7749   -1.7392   -4.4473 Cl  0  0  0  0  0  0                  
   -3.6348   -2.5183   -7.2152 C   0  0  0  0  0  0                  
   -4.0433   -3.5978   -6.8206 O   0  0  0  0  0  0                  
   -4.4425   -1.5733   -7.7344 N   0  0  0  0  0  0                  
   -5.8304   -1.5975   -7.9073 C   0  0  0  0  0  0                  
   -6.7185   -2.5243   -7.3268 C   0  0  0  0  0  0                  
   -8.0875   -2.3528   -7.5087 C   0  0  0  0  0  0                  
   -8.5615   -1.3381   -8.2262 N   0  0  0  0  0  0                  
   -7.7595   -0.4425   -8.8005 C   0  0  0  0  0  0                  
   -6.3788   -0.5287   -8.6082 C   0  0  0  0  0  0                  
   -8.3233    0.6365   -9.4907 N   0  0  0  0  0  0                  
   -7.7484    1.3585  -10.4886 C   0  0  0  0  0  0                  
   -6.6316    1.1242  -10.9205 O   0  0  0  0  0  0                  
   -1.8825   -2.6570   -9.7515 Cl  0  0  0  0  0  0                  
    1.5765   -1.4293   -6.5888 H   0  0  0  0  0  0                  
    0.7219   -2.0435   -8.8256 H   0  0  0  0  0  0                  
    0.0264   -1.3033   -4.6698 H   0  0  0  0  0  0                  
   -4.0528   -0.7015   -8.0635 H   0  0  0  0  0  0                  
   -6.3331   -3.3526   -6.7504 H   0  0  0  0  0  0                  
   -8.7830   -3.0494   -7.0641 H   0  0  0  0  0  0                  
   -5.7357    0.2415   -9.0079 H   0  0  0  0  0  0                  
   -9.2554    0.9524   -9.2609 H   0  0  0  0  0  0                  
   -9.3708    2.8262  -10.4285 H   0  0  0  0  0  0                  
   -8.5295    2.5198  -11.1006 C   0  0  0  0  0  0                  
   -7.5738    3.6972  -11.3358 C   0  0  0  0  0  0                  
   -7.0820    3.4902  -12.7698 C   0  0  0  0  0  0                  
   -8.3542    3.0435  -13.4937 C   0  0  0  0  0  0                  
   -9.0455    2.1089  -12.4915 C   0  0  0  0  0  0                  
   -6.7399    3.7375  -10.5943 H   0  0  0  0  0  0                  
   -8.1379    4.6599  -11.2748 H   0  0  0  0  0  0                  
   -6.6304    4.4109  -13.2119 H   0  0  0  0  0  0                  
   -6.3212    2.6727  -12.7970 H   0  0  0  0  0  0                  
   -8.9995    3.9351  -13.6859 H   0  0  0  0  0  0                  
   -8.1430    2.5528  -14.4744 H   0  0  0  0  0  0                  
   -8.7629    1.0493  -12.7050 H   0  0  0  0  0  0                  
  -10.1572    2.1811  -12.5681 H   0  0  0  0  0  0                  
  1  2  1  0  0  0
  1  6  2  0  0  0
  1 21  1  0  0  0
  2  3  2  0  0  0
  2 22  1  0  0  0
  3  4  1  0  0  0
  3 20  1  0  0  0
  4  5  2  0  0  0
  4  8  1  0  0  0
  5  6  1  0  0  0
  5  7  1  0  0  0
  6 23  1  0  0  0
  8  9  2  0  0  0
  8 10  1  0  0  0
 10 11  1  0  0  0
 10 24  1  0  0  0
 11 12  1  0  0  0
 11 16  2  0  0  0
 12 13  2  0  0  0
 12 25  1  0  0  0
 13 14  1  0  0  0
 13 26  1  0  0  0
 14 15  2  0  0  0
 15 16  1  0  0  0
 15 17  1  0  0  0
 16 27  1  0  0  0
 17 18  1  0  0  0
 17 28  1  0  0  0
 18 19  2  0  0  0
 18 30  1  0  0  0
 29 30  1  0  0  0
 30 31  1  0  0  0
 30 34  1  0  0  0
 31 32  1  0  0  0
 31 35  1  0  0  0
 31 36  1  0  0  0
 32 33  1  0  0  0
 32 37  1  0  0  0
 32 38  1  0  0  0
 33 34  1  0  0  0
 33 39  1  0  0  0
 33 40  1  0  0  0
 34 41  1  0  0  0
 34 42  1  0  0  0
M  END
> <r_user_dG.exp>
-9

$$$$
ejm_47
                    3D
 Structure written by MMmdl.
 39 41  0  0  1  0            999 V2000
    0.5262   -1.6430   -6.7261 C   0  0  0  0  0  0                  
    0.0451   -1.9892   -7.9853 C   0  0  0  0  0  0                  
   -1.3055   -2.2666   -8.1676 C   0  0  0  0  0  0                  
   -2.1928   -2.2089   -7.0775 C   0  0  0  0  0  0                  
   -1.6976   -1.8456   -5.8099 C   0  0  0  0  0  0                  
   -0.3453   -1.5727   -5.6478 C   0  0  0  0  0  0                  
   -2.7749   -1.7392   -4.4473 Cl  0  0  0  0  0  0                  
   -3.6348   -2.5183   -7.2152 C   0  0  0  0  0  0                  
   -4.0433   -3.5978   -6.8206 O   0  0  0  0  0  0                  
   -4.4425   -1.5733   -7.7344 N   0  0  0  0  0  0                  
   -5.8304   -1.5975   -7.9073 C   0  0  0  0  0  0                  
   -6.7185   -2.5243   -7.3268 C   0  0  0  0  0  0                  
   -8.0875   -2.3528   -7.5087 C   0  0  0  0  0  0                  
   -8.5615   -1.3381   -8.2262 N   0  0  0  0  0  0                  
   -7.7595   -0.4425   -8.8005 C   0  0  0  0  0  0                  
   -6.3788   -0.5287   -8.6082 C   0  0  0  0  0  0                  
   -8.3233    0.6365   -9.4907 N   0  0  0  0  0  0                  
   -7.7484    1.3585  -10.4886 C   0  0  0  0  0  0                  
   -6.6316    1.1242  -10.9205 O   0  0  0  0  0  0                  
   -1.8825   -2.6570   -9.7515 Cl  0  0  0  0  0  0                  
    1.5765   -1.4293   -6.5888 H   0  0  0  0  0  0                  
    0.7219   -2.0435   -8.8256 H   0  0  0  0  0  0                  
    0.0264   -1.3033   -4.6698 H   0  0  0  0  0  0                  
   -4.0528   -0.7015   -8.0635 H   0  0  0  0  0  0                  
   -6.3331   -3.3526   -6.7504 H   0  0  0  0  0  0                  
   -8.7830   -3.0494   -7.0641 H   0  0  0  0  0  0                  
   -5.7357    0.2415   -9.0079 H   0  0  0  0  0  0                  
   -9.2554    0.9524   -9.2609 H   0  0  0  0  0  0                  
   -8.5437    2.5055  -11.0617 C   0  0  0  0  0  0                  
   -7.6489    3.6552  -11.5386 C   0  0  0  0  0  0                  
   -7.6840    3.0397  -12.9421 C   0  0  0  0  0  0                  
   -8.9405    2.2682  -12.5231 C   0  0  0  0  0  0                  
   -8.1666    4.6442  -11.4940 H   0  0  0  0  0  0                  
   -6.6378    3.6876  -11.0671 H   0  0  0  0  0  0                  
   -7.8390    3.7721  -13.7698 H   0  0  0  0  0  0                  
   -6.8139    2.3654  -13.1331 H   0  0  0  0  0  0                  
   -9.8811    2.8029  -12.8013 H   0  0  0  0  0  0                  
   -8.9571    1.1967  -12.8351 H   0  0  0  0  0  0                  
   -9.3708    2.8262  -10.4285 H   0  0  0  0  0  0                  
  1  2  1  0  0  0
  1  6  2  0  0  0
  1 21  1  0  0  0
  2  3  2  0  0  0
  2 22  1  0  0  0
  3  4  1  0  0  0
  3 20  1  0  0  0
  4  5  2  0  0  0
  4  8  1  0  0  0
  5  6  1  0  0  0
  5  7  1  0  0  0
  6 23  1  0  0  0
  8  9  2  0  0  0
  8 10  1  0  0  0
 10 11  1  0  0  0
 10 24  1  0  0  0
 11 12  1  0  0  0
 11 16  2  0  0  0
 12 13  2  0  0  0
 12 25  1  0  0  0
 13 14  1  0  0  0
 13 26  1  0  0  0
 14 15  2  0  0  0
 15 16  1  0  0  0
 15 17  1  0  0  0
 16 27  1  0  0  0
 17 18  1  0  0  0
 17 28  1  0  0  0
 18 19  2  0  0  0
 18 29  1  0  0  0
 29 30  1  0  0  0
 29 32  1  0  0  0
 29 39  1  0  0  0
 30 31  1  0  0  0
 30 33  1  0  0  0
 30 34  1  0  0  0
 31 32  1  0  0  0
 31 35  1  0  0  0
 31 36  1  0  0  0
 32 37  1  0  0  0
 32 38  1  0  0  0
M  END
> <r_user_dG.exp>
-9.7

$$$$
jmc_23
                    3D
 Structure written by MMmdl.
 36 38  0  0  1  0            999 V2000
    0.5262   -1.6430   -6.7261 C   0  0  0  0  0  0                  
    0.0451   -1.9892   -7.9853 C   0  0  0  0  0  0                  
   -1.3055   -2.2666   -8.1676 C   0  0  0  0  0  0                  
   -2.1928   -2.2089   -7.0775 C   0  0  0  0  0  0                  
   -1.6976   -1.8456   -5.8099 C   0  0  0  0  0  0                  
   -0.3453   -1.5727   -5.6478 C   0  0  0  0  0  0                  
   -2.7749   -1.7392   -4.4473 Cl  0  0  0  0  0  0                  
   -3.6348   -2.5183   -7.2152 C   0  0  0  0  0  0                  
   -4.0433   -3.5978   -6.8206 O   0  0  0  0  0  0                  
   -4.4425   -1.5733   -7.7344 N   0  0  0  0  0  0                  
   -5.8304   -1.5975   -7.9073 C   0  0  0  0  0  0                  
   -6.7185   -2.5243   -7.3268 C   0  0  0  0  0  0                  
   -8.0875   -2.3528   -7.5087 C   0  0  0  0  0  0                  
   -8.5615   -1.3381   -8.2262 N   0  0  0  0  0  0                  
   -7.7595   -0.4425   -8.8005 C   0  0  0  0  0  0                  
   -6.3788   -0.5287   -8.6082 C   0  0  0  0  0  0                  
   -8.3233    0.6365   -9.4907 N   0  0  0  0  0  0                  
   -7.7484    1.3585  -10.4886 C   0  0  0  0  0  0                  
   -6.6316    1.1242  -10.9205 O   0  0  0  0  0  0                  
   -8.5595    2.5050  -11.0403 C   0  0  1  0  0  0                  
   -7.8587    3.6034  -11.8463 C   0  0  0  0  0  0                  
   -8.7739    2.5981  -12.5476 C   0  0  1  0  0  0                  
   -8.1730    1.6154  -13.3353 F   0  0  0  0  0  0                  
   -1.8825   -2.6570   -9.7515 Cl  0  0  0  0  0  0                  
   -9.3790    2.8120  -10.3978 H   0  0  0  0  0  0                  
   -9.7346    2.9674  -12.9021 H   0  0  0  0  0  0                  
    1.5765   -1.4293   -6.5888 H   0  0  0  0  0  0                  
    0.7219   -2.0435   -8.8256 H   0  0  0  0  0  0                  
    0.0264   -1.3033   -4.6698 H   0  0  0  0  0  0                  
   -4.0528   -0.7015   -8.0635 H   0  0  0  0  0  0                  
   -6.3331   -3.3526   -6.7504 H   0  0  0  0  0  0                  
   -8.7830   -3.0494   -7.0641 H   0  0  0  0  0  0                  
   -5.7357    0.2415   -9.0079 H   0  0  0  0  0  0                  
   -9.2554    0.9524   -9.2609 H   0  0  0  0  0  0                  
   -8.1684    4.5810  -11.4752 H   0  0  0  0  0  0                  
   -6.7781    3.5002  -11.7399 H   0  0  0  0  0  0                  
  1  2  1  0  0  0
  1  6  2  0  0  0
  1 27  1  0  0  0
  2  3  2  0  0  0
  2 28  1  0  0  0
  3  4  1  0  0  0
  3 24  1  0  0  0
  4  5  2  0  0  0
  4  8  1  0  0  0
  5  6  1  0  0  0
  5  7  1  0  0  0
  6 29  1  0  0  0
  8  9  2  0  0  0
  8 10  1  0  0  0
 10 11  1  0  0  0
 10 30  1  0  0  0
 11 12  1  0  0  0
 11 16  2  0  0  0
 12 13  2  0  0  0
 12 31  1  0  0  0
 13 14  1  0  0  0
 13 32  1  0  0  0
 14 15  2  0  0  0
 15 16  1  0  0  0
 15 17  1  0  0  0
 16 33  1  0  0  0
 17 18  1  0  0  0
 17 34  1  0  0  0
 18 19  2  0  0  0
 18 20  1  0  0  0
 20 21  1  0  0  0
 20 22  1  0  0  0
 20 25  1  0  0  0
 21 22  1  0  0  0
 21 35  1  0  0  0
 21 36  1  0  0  0
 22 23  1  0  0  0
 22 26  1  0  0  0
M  END
> <r_user_dG.exp>
-11.7

$$$$
ejm_42
                    3D
 Structure written by MMmdl.
 35 36  0  0  1  0            999 V2000
    0.5262   -1.6430   -6.7261 C   0  0  0  0  0  0                  
    0.0451   -1.9892   -7.9853 C   0  0  0  0  0  0                  
   -1.3055   -2.2666   -8.1676 C   0  0  0  0  0  0                  
   -2.1928   -2.2089   -7.0775 C   0  0  0  0  0  0                  
   -1.6976   -1.8456   -5.8099 C   0  0  0  0  0  0                  
   -0.3453   -1.5727   -5.6478 C   0  0  0  0  0  0                  
   -2.7749   -1.7392   -4.4473 Cl  0  0  0  0  0  0                  
   -3.6348   -2.5183   -7.2152 C   0  0  0  0  0  0                  
   -4.0433   -3.5978   -6.8206 O   0  0  0  0  0  0                  
   -4.4425   -1.5733   -7.7344 N   0  0  0  0  0  0                  
   -5.8304   -1.5975   -7.9073 C   0  0  0  0  0  0                  
   -6.7185   -2.5243   -7.3268 C   0  0  0  0  0  0                  
   -8.0875   -2.3528   -7.5087 C   0  0  0  0  0  0                  
   -8.5615   -1.3381   -8.2262 N   0  0  0  0  0  0                  
   -7.7595   -0.4425   -8.8005 C   0  0  0  0  0  0                  
   -6.3788   -0.5287   -8.6082 C   0  0  0  0  0  0                  
   -8.3233    0.6365   -9.4907 N   0  0  0  0  0  0                  
   -7.7484    1.3585  -10.4886 C   0  0  0  0  0  0                  
   -6.6316    1.1242  -10.9205 O   0  0  0  0  0  0                  
   -8.5595    2.5050  -11.0403 C   0  0  0  0  0  0                  
   -1.8825   -2.6570   -9.7515 Cl  0  0  0  0  0  0                  
   -9.6146    2.2789  -11.1593 H   0  0  0  0  0  0                  
    1.5765   -1.4293   -6.5888 H   0  0  0  0  0  0                  
    0.7219   -2.0435   -8.8256 H   0  0  0  0  0  0                  
    0.0264   -1.3033   -4.6698 H   0  0  0  0  0  0                  
   -4.0528   -0.7015   -8.0635 H   0  0  0  0  0  0                  
   -6.3331   -3.3526   -6.7504 H   0  0  0  0  0  0                  
   -8.7830   -3.0494   -7.0641 H   0  0  0  0  0  0                  
   -5.7357    0.2415   -9.0079 H   0  0  0  0  0  0                  
   -9.2554    0.9524   -9.2609 H   0  0  0  0  0  0                  
   -7.9892    2.9276  -12.3616 C   0  0  0  0  0  0                  
   -8.4469    3.3730  -10.3906 H   0  0  0  0  0  0                  
   -8.5736    3.7559  -12.7620 H   0  0  0  0  0  0                  
   -6.9551    3.2450  -12.2268 H   0  0  0  0  0  0                  
   -8.0236    2.0894  -13.0576 H   0  0  0  0  0  0                  
  1  2  1  0  0  0
  1  6  2  0  0  0
  1 23  1  0  0  0
  2  3  2  0  0  0
  2 24  1  0  0  0
  3  4  1  0  0  0
  3 21  1  0  0  0
  4  5  2  0  0  0
  4  8  1  0  0  0
  5  6  1  0  0  0
  5  7  1  0  0  0
  6 25  1  0  0  0
  8  9  2  0  0  0
  8 10  1  0  0  0
 10 11  1  0  0  0
 10 26  1  0  0  0
 11 12  1  0  0  0
 11 16  2  0  0  0
 12 13  2  0  0  0
 12 27  1  0  0  0
 13 14  1  0  0  0
 13 28  1  0  0  0
 14 15  2  0  0  0
 15 16  1  0  0  0
 15 17  1  0  0  0
 16 29  1  0  0  0
 17 18  1  0  0  0
 17 30  1  0  0  0
 18 19  2  0  0  0
 18 20  1  0  0  0
 20 22  1  0  0  0
 20 31  1  0  0  0
 20 32  1  0  0  0
 31 33  1  0  0  0
 31 34  1  0  0  0
 31 35  1  0  0  0
M  END
> <r_user_dG.exp>
-9.78

$$$$
ejm_54
                    3D
 Structure written by MMmdl.
 37 38  0  0  1  0            999 V2000
    0.5262   -1.6430   -6.7261 C   0  0  0  0  0  0                  
    0.0451   -1.9892   -7.9853 C   0  0  0  0  0  0                  
   -1.3055   -2.2666   -8.1676 C   0  0  0  0  0  0                  
   -2.1928   -2.2089   -7.0775 C   0  0  0  0  0  0                  
   -1.6976   -1.8456   -5.8099 C   0  0  0  0  0  0                  
   -0.3453   -1.5727   -5.6478 C   0  0  0  0  0  0                  
   -2.7749   -1.7392   -4.4473 Cl  0  0  0  0  0  0                  
   -3.6348   -2.5183   -7.2152 C   0  0  0  0  0  0                  
   -4.0433   -3.5978   -6.8206 O   0  0  0  0  0  0                  
   -4.4425   -1.5733   -7.7344 N   0  0  0  0  0  0                  
   -5.8304   -1.5975   -7.9073 C   0  0  0  0  0  0                  
   -6.7185   -2.5243   -7.3268 C   0  0  0  0  0  0                  
   -8.0875   -2.3528   -7.5087 C   0  0  0  0  0  0                  
   -8.5615   -1.3381   -8.2262 N   0  0  0  0  0  0                  
   -7.7595   -0.4425   -8.8005 C   0  0  0  0  0  0                  
   -6.3788   -0.5287   -8.6082 C   0  0  0  0  0  0                  
   -8.3233    0.6365   -9.4907 N   0  0  0  0  0  0                  
   -7.7484    1.3585  -10.4886 C   0  0  0  0  0  0                  
   -6.6316    1.1242  -10.9205 O   0  0  0  0  0  0                  
   -1.8825   -2.6570   -9.7515 Cl  0  0  0  0  0  0                  
    1.5765   -1.4293   -6.5888 H   0  0  0  0  0  0                  
    0.7219   -2.0435   -8.8256 H   0  0  0  0  0  0                  
    0.0264   -1.3033   -4.6698 H   0  0  0  0  0  0                  
   -4.0528   -0.7015   -8.0635 H   0  0  0  0  0  0                  
   -6.3331   -3.3526   -6.7504 H   0  0  0  0  0  0                  
   -8.7830   -3.0494   -7.0641 H   0  0  0  0  0  0                  
   -5.7357    0.2415   -9.0079 H   0  0  0  0  0  0                  
   -9.2554    0.9524   -9.2609 H   0  0  0  0  0  0                  
   -8.0918    3.0222  -12.3610 C   0  0  0  0  0  0                  
   -8.8717    3.6405  -12.8054 H   0  0  0  0  0  0                  
   -7.1957    3.6233  -12.2072 H   0  0  0  0  0  0                  
   -7.7752    1.8803  -13.2808 C   0  0  0  0  0  0                  
   -8.4959    2.4719  -11.0759 N   0  0  0  0  0  0                  
   -9.2922    2.8581  -10.5890 H   0  0  0  0  0  0                  
   -6.9953    1.2613  -12.8373 H   0  0  0  0  0  0                  
   -8.6711    1.2792  -13.4363 H   0  0  0  0  0  0                  
   -7.4289    2.2696  -14.2382 H   0  0  0  0  0  0                  
  1  2  1  0  0  0
  1  6  2  0  0  0
  1 21  1  0  0  0
  2  3  2  0  0  0
  2 22  1  0  0  0
  3  4  1  0  0  0
  3 20  1  0  0  0
  4  5  2  0  0  0
  4  8  1  0  0  0
  5  6  1  0  0  0
  5  7  1  0  0  0
  6 23  1  0  0  0
  8  9  2  0  0  0
  8 10  1  0  0  0
 10 11  1  0  0  0
 10 24  1  0  0  0
 11 12  1  0  0  0
 11 16  2  0  0  0
 12 13  2  0  0  0
 12 25  1  0  0  0
 13 14  1  0  0  0
 13 26  1  0  0  0
 14 15  2  0  0  0
 15 16  1  0  0  0
 15 17  1  0  0  0
 16 27  1  0  0  0
 17 18  1  0  0  0
 17 28  1  0  0  0
 18 19  2  0  0  0
 18 33  1  0  0  0
 29 30  1  0  0  0
 29 31  1  0  0  0
 29 32  1  0  0  0
 29 33  1  0  0  0
 32 35  1  0  0  0
 32 36  1  0  0  0
 32 37  1  0  0  0
 33 34  1  0  0  0
M  END
> <r_user_dG.exp>
-10.53

$$$$
