ejm_31
     RDKit          3D

 21 22  0  0  0  0  0  0  0  0999 V2000
   -0.0405   -1.4786   -8.0551 C   0  0  0  0  0  0  0  0  0  0  0  0
   -0.4960   -1.7502   -9.3419 C   0  0  0  0  0  0  0  0  0  0  0  0
   -1.8540   -1.9315   -9.5808 C   0  0  0  0  0  0  0  0  0  0  0  0
   -2.7755   -1.8517   -8.5209 C   0  0  0  0  0  0  0  0  0  0  0  0
   -2.3051   -1.5643   -7.2247 C   0  0  0  0  0  0  0  0  0  0  0  0
   -0.9450   -1.3869   -7.0060 C   0  0  0  0  0  0  0  0  0  0  0  0
   -3.4230   -1.4325   -5.8975 Cl  0  0  0  0  0  0  0  0  0  0  0  0
   -4.2284   -2.0605   -8.7197 C   0  0  0  0  0  0  0  0  0  0  0  0
   -4.7203   -3.1232   -8.3783 O   0  0  0  0  0  0  0  0  0  0  0  0
   -4.9534   -1.0475   -9.2326 N   0  0  0  0  0  0  0  0  0  0  0  0
   -6.3326   -0.9742   -9.4544 C   0  0  0  0  0  0  0  0  0  0  0  0
   -7.2997   -1.8591   -8.9386 C   0  0  0  0  0  0  0  0  0  0  0  0
   -8.6471   -1.5917   -9.1618 C   0  0  0  0  0  0  0  0  0  0  0  0
   -9.0274   -0.5245   -9.8588 N   0  0  0  0  0  0  0  0  0  0  0  0
   -8.1484    0.3348  -10.3725 C   0  0  0  0  0  0  0  0  0  0  0  0
   -6.7843    0.1513  -10.1355 C   0  0  0  0  0  0  0  0  0  0  0  0
   -8.6151    1.4711  -11.0429 N   0  0  0  0  0  0  0  0  0  0  0  0
   -7.9580    2.1863  -11.9939 C   0  0  0  0  0  0  0  0  0  0  0  0
   -6.8436    1.8933  -12.3947 O   0  0  0  0  0  0  0  0  0  0  0  0
   -8.6722    3.4017  -12.5322 C   0  0  0  0  0  0  0  0  0  0  0  0
   -2.3960   -2.2301  -11.1968 Cl  0  0  0  0  0  0  0  0  0  0  0  0
  1  2  2  0
  1  6  1  0
  2  3  1  0
  3  4  2  0
  3 21  1  0
  4  5  1  0
  4  8  1  0
  5  6  2  0
  5  7  1  0
  8  9  2  0
  8 10  1  0
 10 11  1  0
 11 12  2  0
 11 16  1  0
 12 13  1  0
 13 14  2  0
 14 15  1  0
 15 16  2  0
 15 17  1  0
 17 18  1  0
 18 19  2  0
 18 20  1  0
M  END
