18629-1
     RDKit          3D

 23 24  0  0  0  0  0  0  0  0999 V2000
   10.8136   -0.5832    1.5723 C   0  0  0  0  0  0  0  0  0  0  0  0
   10.5731   -1.3752    2.8596 C   0  0  0  0  0  0  0  0  0  0  0  0
   10.0499   -0.4756    3.8340 O   0  0  0  0  0  0  0  0  0  0  0  0
    9.7920   -0.9303    5.1158 C   0  0  0  0  0  0  0  0  0  0  0  0
   10.0522   -2.2403    5.3777 N   0  0  0  0  0  0  0  0  0  0  0  0
    9.7807   -2.7102    6.6035 C   0  0  0  0  0  0  0  0  0  0  0  0
    9.2792   -1.9208    7.6263 C   0  0  0  0  0  0  0  0  0  0  0  0
    9.0209   -0.5888    7.3607 C   0  0  0  0  0  0  0  0  0  0  0  0
    8.5059    0.1411    8.4243 N   0  0  0  0  0  0  0  0  0  0  0  0
    9.2735   -0.0617    6.0835 C   0  0  0  0  0  0  0  0  0  0  0  0
    9.0124    1.3295    5.7313 C   0  0  0  0  0  0  0  0  0  0  0  0
    8.8087    2.4324    5.4434 N   0  0  0  0  0  0  0  0  0  0  0  0
   10.1116   -4.0439    6.7133 N   0  0  0  0  0  0  0  0  0  0  0  0
    9.6522   -4.9728    7.5578 C   0  0  0  0  0  0  0  0  0  0  0  0
    8.7593   -4.7570    8.3753 O   0  0  0  0  0  0  0  0  0  0  0  0
   10.2610   -6.3815    7.4912 C   0  0  0  0  0  0  0  0  0  0  0  0
   11.4460   -6.5405    6.5380 C   0  0  0  0  0  0  0  0  0  0  0  0
   11.2735   -6.4153    5.1532 C   0  0  0  0  0  0  0  0  0  0  0  0
   12.3704   -6.5079    4.2940 C   0  0  0  0  0  0  0  0  0  0  0  0
   12.1957   -6.3223    2.7998 C   0  0  0  0  0  0  0  0  0  0  0  0
   13.6380   -6.7676    4.8176 C   0  0  0  0  0  0  0  0  0  0  0  0
   13.8123   -6.9152    6.1934 C   0  0  0  0  0  0  0  0  0  0  0  0
   12.7200   -6.7980    7.0516 C   0  0  0  0  0  0  0  0  0  0  0  0
  1  2  1  0
  2  3  1  0
  3  4  1  0
  4 10  2  0
  4  5  1  0
  5  6  2  0
  6  7  1  0
  6 13  1  0
  7  8  2  0
  8  9  1  0
  8 10  1  0
 10 11  1  0
 11 12  3  0
 13 14  1  0
 14 15  2  0
 14 16  1  0
 16 17  1  0
 17 23  1  0
 17 18  2  0
 18 19  1  0
 19 20  1  0
 19 21  2  0
 21 22  1  0
 22 23  2  0
M  END
