1h1q
     RDKit          3D

 24 27  0  0  0  0  0  0  0  0999 V2000
   17.4681  -34.4249   -4.4667 C   0  0  0  0  0  0  0  0  0  0  0  0
   13.9900  -31.8938   -3.7533 C   0  0  0  0  0  0  0  0  0  0  0  0
   17.2414  -35.2410   -0.5349 C   0  0  0  0  0  0  0  0  0  0  0  0
   17.3812  -35.1005    0.9810 C   0  0  0  0  0  0  0  0  0  0  0  0
   18.0685  -36.3630    1.5365 C   0  0  0  0  0  0  0  0  0  0  0  0
   18.3298  -36.2493    3.0402 C   0  0  0  0  0  0  0  0  0  0  0  0
   19.1687  -35.0094    3.3703 C   0  0  0  0  0  0  0  0  0  0  0  0
   18.4698  -33.7407    2.8589 C   0  0  0  0  0  0  0  0  0  0  0  0
   18.1858  -33.8319    1.3503 C   0  0  0  0  0  0  0  0  0  0  0  0
   21.4628  -37.1278   -4.7242 C   0  0  0  0  0  0  0  0  0  0  0  0
   22.0173  -36.6603   -3.5184 C   0  0  0  0  0  0  0  0  0  0  0  0
   21.4162  -35.5857   -2.8395 C   0  0  0  0  0  0  0  0  0  0  0  0
   20.2528  -34.9930   -3.3634 C   0  0  0  0  0  0  0  0  0  0  0  0
   17.3303  -34.6936   -3.1678 N   0  0  0  0  0  0  0  0  0  0  0  0
   16.3634  -34.1034   -2.4348 C   0  0  0  0  0  0  0  0  0  0  0  0
   16.3293  -34.2834   -1.0689 O   0  0  0  0  0  0  0  0  0  0  0  0
   15.4655  -33.2367   -3.0935 C   0  0  0  0  0  0  0  0  0  0  0  0
   14.3847  -32.4797   -2.6620 N   0  0  0  0  0  0  0  0  0  0  0  0
   14.7319  -32.1771   -4.8666 N   0  0  0  0  0  0  0  0  0  0  0  0
   15.6815  -33.0671   -4.4442 C   0  0  0  0  0  0  0  0  0  0  0  0
   16.6600  -33.6516   -5.2010 N   0  0  0  0  0  0  0  0  0  0  0  0
   18.5613  -34.9046   -5.0914 N   0  0  0  0  0  0  0  0  0  0  0  0
   19.6683  -35.4741   -4.5582 C   0  0  0  0  0  0  0  0  0  0  0  0
   20.2997  -36.5294   -5.2481 C   0  0  0  0  0  0  0  0  0  0  0  0
  1 14  1  0
  1 21  2  0
  1 22  1  0
  2 18  2  0
  2 19  1  0
  3  4  1  0
  3 16  1  0
  4  5  1  0
  4  9  1  0
  5  6  1  0
  6  7  1  0
  7  8  1  0
  8  9  1  0
 10 11  2  0
 10 24  1  0
 11 12  1  0
 12 13  2  0
 13 23  1  0
 14 15  2  0
 15 16  1  0
 15 17  1  0
 17 18  1  0
 17 20  2  0
 19 20  1  0
 20 21  1  0
 22 23  1  0
 23 24  2  0
M  END
