1h1q
     RDKit          3D

 24 27  0  0  0  0  0  0  0  0999 V2000
   -3.3018  -10.6593   -9.7730 C   0  0  0  0  0  0  0  0  0  0  0  0
   -6.7799   -8.1283   -9.0596 C   0  0  0  0  0  0  0  0  0  0  0  0
   -3.5285  -11.4754   -5.8412 C   0  0  0  0  0  0  0  0  0  0  0  0
   -3.3888  -11.3349   -4.3253 C   0  0  0  0  0  0  0  0  0  0  0  0
   -2.7014  -12.5974   -3.7698 C   0  0  0  0  0  0  0  0  0  0  0  0
   -2.4401  -12.4837   -2.2661 C   0  0  0  0  0  0  0  0  0  0  0  0
   -1.6013  -11.2439   -1.9360 C   0  0  0  0  0  0  0  0  0  0  0  0
   -2.3001   -9.9751   -2.4474 C   0  0  0  0  0  0  0  0  0  0  0  0
   -2.5842  -10.0664   -3.9560 C   0  0  0  0  0  0  0  0  0  0  0  0
    0.6928  -13.3623  -10.0305 C   0  0  0  0  0  0  0  0  0  0  0  0
    1.2474  -12.8948   -8.8247 C   0  0  0  0  0  0  0  0  0  0  0  0
    0.6463  -11.8201   -8.1458 C   0  0  0  0  0  0  0  0  0  0  0  0
   -0.5172  -11.2274   -8.6697 C   0  0  0  0  0  0  0  0  0  0  0  0
   -3.4397  -10.9280   -8.4741 N   0  0  0  0  0  0  0  0  0  0  0  0
   -4.4065  -10.3378   -7.7411 C   0  0  0  0  0  0  0  0  0  0  0  0
   -4.4406  -10.5178   -6.3752 O   0  0  0  0  0  0  0  0  0  0  0  0
   -5.3045   -9.4712   -8.3998 C   0  0  0  0  0  0  0  0  0  0  0  0
   -6.3852   -8.7142   -7.9683 N   0  0  0  0  0  0  0  0  0  0  0  0
   -6.0381   -8.4115  -10.1729 N   0  0  0  0  0  0  0  0  0  0  0  0
   -5.0885   -9.3015   -9.7505 C   0  0  0  0  0  0  0  0  0  0  0  0
   -4.1100   -9.8860  -10.5073 N   0  0  0  0  0  0  0  0  0  0  0  0
   -2.2087  -11.1390  -10.3977 N   0  0  0  0  0  0  0  0  0  0  0  0
   -1.1017  -11.7085   -9.8646 C   0  0  0  0  0  0  0  0  0  0  0  0
   -0.4702  -12.7638  -10.5545 C   0  0  0  0  0  0  0  0  0  0  0  0
  1 14  1  0
  1 21  2  0
  1 22  1  0
  2 18  2  0
  2 19  1  0
  3  4  1  0
  3 16  1  0
  4  5  1  0
  4  9  1  0
  5  6  1  0
  6  7  1  0
  7  8  1  0
  8  9  1  0
 10 11  2  0
 10 24  1  0
 11 12  1  0
 12 13  2  0
 13 23  1  0
 14 15  2  0
 15 16  1  0
 15 17  1  0
 17 18  1  0
 17 20  2  0
 19 20  1  0
 20 21  1  0
 22 23  1  0
 23 24  2  0
M  END
