18629-1
     RDKit          3D

 41 42  0  0  0  0  0  0  0  0999 V2000
   24.0510   12.2016   30.2637 C   0  0  0  0  0  0  0  0  0  0  0  0
   23.3159   10.8864   30.5326 C   0  0  0  0  0  0  0  0  0  0  0  0
   22.1655   11.1828   31.3207 O   0  0  0  0  0  0  0  0  0  0  0  0
   21.3477   10.1523   31.7514 C   0  0  0  0  0  0  0  0  0  0  0  0
   21.6919    8.8874   31.3853 N   0  0  0  0  0  0  0  0  0  0  0  0
   20.8972    7.8767   31.7648 C   0  0  0  0  0  0  0  0  0  0  0  0
   19.7610    8.0525   32.5388 C   0  0  0  0  0  0  0  0  0  0  0  0
   19.4157    9.3373   32.9151 C   0  0  0  0  0  0  0  0  0  0  0  0
   18.2588    9.4438   33.6763 N   0  0  0  0  0  0  0  0  0  0  0  0
   20.2113   10.4260   32.5218 C   0  0  0  0  0  0  0  0  0  0  0  0
   19.8989   11.8070   32.8723 C   0  0  0  0  0  0  0  0  0  0  0  0
   19.6587   12.9061   33.1464 N   0  0  0  0  0  0  0  0  0  0  0  0
   21.3873    6.6638   31.3301 N   0  0  0  0  0  0  0  0  0  0  0  0
   20.7487    5.5080   31.1215 C   0  0  0  0  0  0  0  0  0  0  0  0
   19.5319    5.3796   31.2433 O   0  0  0  0  0  0  0  0  0  0  0  0
   21.5762    4.2864   30.6944 C   0  0  0  0  0  0  0  0  0  0  0  0
   23.0915    4.4911   30.6827 C   0  0  0  0  0  0  0  0  0  0  0  0
   23.6888    5.3698   29.7694 C   0  0  0  0  0  0  0  0  0  0  0  0
   25.0671    5.5919   29.8016 C   0  0  0  0  0  0  0  0  0  0  0  0
   25.7101    6.5802   28.8490 C   0  0  0  0  0  0  0  0  0  0  0  0
   25.8566    4.9019   30.7231 C   0  0  0  0  0  0  0  0  0  0  0  0
   25.2705    4.0092   31.6200 C   0  0  0  0  0  0  0  0  0  0  0  0
   23.8912    3.8073   31.6026 C   0  0  0  0  0  0  0  0  0  0  0  0
   24.3160   12.6757   31.2202 H   0  0  0  0  0  0  0  0  0  0  0  0
   24.9667   11.9990   29.6888 H   0  0  0  0  0  0  0  0  0  0  0  0
   23.3987   12.8754   29.6888 H   0  0  0  0  0  0  0  0  0  0  0  0
   23.0094   10.4278   29.5809 H   0  0  0  0  0  0  0  0  0  0  0  0
   23.9728   10.1807   31.0622 H   0  0  0  0  0  0  0  0  0  0  0  0
   19.1493    7.1914   32.8460 H   0  0  0  0  0  0  0  0  0  0  0  0
   17.9356   10.3682   33.9954 H   0  0  0  0  0  0  0  0  0  0  0  0
   17.7241    8.5983   33.9216 H   0  0  0  0  0  0  0  0  0  0  0  0
   22.3988    6.6452   31.1367 H   0  0  0  0  0  0  0  0  0  0  0  0
   21.3504    3.4640   31.3892 H   0  0  0  0  0  0  0  0  0  0  0  0
   21.2910    4.0768   29.6529 H   0  0  0  0  0  0  0  0  0  0  0  0
   23.0686    5.8876   29.0229 H   0  0  0  0  0  0  0  0  0  0  0  0
   26.2211    7.3656   29.4253 H   0  0  0  0  0  0  0  0  0  0  0  0
   26.4408    6.0563   28.2152 H   0  0  0  0  0  0  0  0  0  0  0  0
   24.9351    7.0359   28.2152 H   0  0  0  0  0  0  0  0  0  0  0  0
   26.9446    5.0628   30.7419 H   0  0  0  0  0  0  0  0  0  0  0  0
   25.8968    3.4641   32.3415 H   0  0  0  0  0  0  0  0  0  0  0  0
   23.4307    3.1074   32.3154 H   0  0  0  0  0  0  0  0  0  0  0  0
  1  2  1  0
  2  3  1  0
  3  4  1  0
  4 10  2  0
  4  5  1  0
  5  6  2  0
  6  7  1  0
  6 13  1  0
  7  8  2  0
  8  9  1  0
  8 10  1  0
 10 11  1  0
 11 12  3  0
 13 14  1  0
 14 15  2  0
 14 16  1  0
 16 17  1  0
 17 23  1  0
 17 18  2  0
 18 19  1  0
 19 20  1  0
 19 21  2  0
 21 22  1  0
 22 23  2  0
  1 24  1  0
  1 25  1  0
  1 26  1  0
  2 27  1  0
  2 28  1  0
  7 29  1  0
  9 30  1  0
  9 31  1  0
 13 32  1  0
 16 33  1  0
 16 34  1  0
 18 35  1  0
 20 36  1  0
 20 37  1  0
 20 38  1  0
 21 39  1  0
 22 40  1  0
 23 41  1  0
M  END
>  <i_m_stars>  (1) 
0

>  <r_user_dG.exp>  (1) 
-8.6737699999999993

>  <atom.dprop.PartialCharge>  (1) 
-0.10512436585365856 0.14037563414634144 -0.44112436585365855 0.73957563414634142 -0.83102436585365858 0.62517563414634136 -0.39332436585365854 0.30557563414634142 -0.85922436585365858
-0.28332436585365856 0.26877563414634142 -0.39482436585365854 -0.54642436585365861 0.67407563414634142 -0.58412436585365857 -0.11012436585365856 -0.10032436585365856 -0.11602436585365856
-0.069324365853658559 -0.057824365853658556 -0.12202436585365856 -0.12102436585365856 -0.13902436585365857 0.050675634146341443 0.050675634146341443 0.050675634146341443
0.051175634146341444 0.051175634146341444 0.18397563414634144 0.43927563414634146 0.43927563414634146 0.34047563414634147 0.087175634146341441 0.087175634146341441 0.13997563414634145
0.04800863414634144 0.04800863414634144 0.04800863414634144 0.13597563414634145 0.13597563414634145 0.13297563414634145

$$$$
