@<TRIPOS>MOLECULE
MOL
   41    42     1     0     0
SMALL
No Charge or Current Charge


@<TRIPOS>ATOM
      1 C1          24.0510    12.2020    30.2640 c3         1 MOL       0.000000
      2 C2          23.3160    10.8860    30.5330 c3         1 MOL       0.000000
      3 O1          22.1660    11.1830    31.3210 os         1 MOL       0.000000
      4 C3          21.3480    10.1520    31.7510 ca         1 MOL       0.000000
      5 N1          21.6920     8.8870    31.3850 nb         1 MOL       0.000000
      6 C4          20.8970     7.8770    31.7650 ca         1 MOL       0.000000
      7 C5          19.7610     8.0530    32.5390 ca         1 MOL       0.000000
      8 C6          19.4160     9.3370    32.9150 ca         1 MOL       0.000000
      9 N2          18.2590     9.4440    33.6760 nv         1 MOL       0.000000
     10 C7          20.2110    10.4260    32.5220 ca         1 MOL       0.000000
     11 C8          19.8990    11.8070    32.8720 cg         1 MOL       0.000000
     12 N3          19.6590    12.9060    33.1460 n1         1 MOL       0.000000
     13 N4          21.3870     6.6640    31.3300 ns         1 MOL       0.000000
     14 C9          20.7490     5.5080    31.1220 c          1 MOL       0.000000
     15 O2          19.5320     5.3800    31.2430 o          1 MOL       0.000000
     16 C10         21.5760     4.2860    30.6940 c3         1 MOL       0.000000
     17 C11         23.0910     4.4910    30.6830 ca         1 MOL       0.000000
     18 C12         23.6890     5.3700    29.7690 ca         1 MOL       0.000000
     19 C13         25.0670     5.5920    29.8020 ca         1 MOL       0.000000
     20 C14         25.7100     6.5800    28.8490 c3         1 MOL       0.000000
     21 C15         25.8570     4.9020    30.7230 ca         1 MOL       0.000000
     22 C16         25.2700     4.0090    31.6200 ca         1 MOL       0.000000
     23 C17         23.8910     3.8070    31.6030 ca         1 MOL       0.000000
     24 H1          24.3160    12.6760    31.2200 hc         1 MOL       0.000000
     25 H2          24.9670    11.9990    29.6890 hc         1 MOL       0.000000
     26 H3          23.3990    12.8750    29.6890 hc         1 MOL       0.000000
     27 H4          23.0090    10.4280    29.5810 h1         1 MOL       0.000000
     28 H5          23.9730    10.1810    31.0620 h1         1 MOL       0.000000
     29 H6          19.1490     7.1910    32.8460 ha         1 MOL       0.000000
     30 H7          17.9360    10.3680    33.9950 hn         1 MOL       0.000000
     31 H8          17.7240     8.5980    33.9220 hn         1 MOL       0.000000
     32 H9          22.3990     6.6450    31.1370 hn         1 MOL       0.000000
     33 H10         21.3500     3.4640    31.3890 hc         1 MOL       0.000000
     34 H11         21.2910     4.0770    29.6530 hc         1 MOL       0.000000
     35 H12         23.0690     5.8880    29.0230 ha         1 MOL       0.000000
     36 H13         26.2210     7.3660    29.4250 hc         1 MOL       0.000000
     37 H14         26.4410     6.0560    28.2150 hc         1 MOL       0.000000
     38 H15         24.9350     7.0360    28.2150 hc         1 MOL       0.000000
     39 H16         26.9450     5.0630    30.7420 ha         1 MOL       0.000000
     40 H17         25.8970     3.4640    32.3420 ha         1 MOL       0.000000
     41 H18         23.4310     3.1070    32.3150 ha         1 MOL       0.000000
@<TRIPOS>BOND
     1     1     2 1   
     2     2     3 1   
     3     3     4 1   
     4     4    10 ar  
     5     4     5 ar  
     6     5     6 ar  
     7     6     7 ar  
     8     6    13 1   
     9     7     8 ar  
    10     8     9 1   
    11     8    10 ar  
    12    10    11 1   
    13    11    12 3   
    14    13    14 1   
    15    14    15 2   
    16    14    16 1   
    17    16    17 1   
    18    17    23 ar  
    19    17    18 ar  
    20    18    19 ar  
    21    19    20 1   
    22    19    21 ar  
    23    21    22 ar  
    24    22    23 ar  
    25     1    24 1   
    26     1    25 1   
    27     1    26 1   
    28     2    27 1   
    29     2    28 1   
    30     7    29 1   
    31     9    30 1   
    32     9    31 1   
    33    13    32 1   
    34    16    33 1   
    35    16    34 1   
    36    18    35 1   
    37    20    36 1   
    38    20    37 1   
    39    20    38 1   
    40    21    39 1   
    41    22    40 1   
    42    23    41 1   
@<TRIPOS>SUBSTRUCTURE
     1 MOL         1 TEMP              0 ****  ****    0 ROOT
