18634-1
     RDKit          3D

 46 47  0  0  0  0  0  0  0  0999 V2000
   24.0733   12.4028   30.2323 C   0  0  0  0  0  0  0  0  0  0  0  0
   23.3271   11.0818   30.4341 C   0  0  0  0  0  0  0  0  0  0  0  0
   22.2086   11.3387   31.2785 O   0  0  0  0  0  0  0  0  0  0  0  0
   21.4076   10.2889   31.6938 C   0  0  0  0  0  0  0  0  0  0  0  0
   21.7457    9.0394   31.2730 N   0  0  0  0  0  0  0  0  0  0  0  0
   20.9690    8.0101   31.6444 C   0  0  0  0  0  0  0  0  0  0  0  0
   19.8628    8.1544   32.4699 C   0  0  0  0  0  0  0  0  0  0  0  0
   19.5194    9.4254   32.8937 C   0  0  0  0  0  0  0  0  0  0  0  0
   18.3843    9.5057   33.6914 N   0  0  0  0  0  0  0  0  0  0  0  0
   20.2911   10.5310   32.5018 C   0  0  0  0  0  0  0  0  0  0  0  0
   19.9686   11.9007   32.8839 C   0  0  0  0  0  0  0  0  0  0  0  0
   19.7198   12.9914   33.1811 N   0  0  0  0  0  0  0  0  0  0  0  0
   21.4264    6.8283   31.0989 N   0  0  0  0  0  0  0  0  0  0  0  0
   20.8492    5.6257   31.0244 C   0  0  0  0  0  0  0  0  0  0  0  0
   19.7218    5.3642   31.4396 O   0  0  0  0  0  0  0  0  0  0  0  0
   21.6453    4.5492   30.2959 C   0  0  0  0  0  0  0  0  0  0  0  0
   23.0487    4.3416   30.8592 C   0  0  0  0  0  0  0  0  0  0  0  0
   24.1093    5.1752   30.4706 C   0  0  0  0  0  0  0  0  0  0  0  0
   23.8251    6.2111   29.5994 O   0  0  0  0  0  0  0  0  0  0  0  0
   24.7824    7.2540   29.4258 C   0  0  0  0  0  0  0  0  0  0  0  0
   25.3879    4.9247   30.9874 C   0  0  0  0  0  0  0  0  0  0  0  0
   25.5914    3.9088   31.9220 C   0  0  0  0  0  0  0  0  0  0  0  0
   24.5221    3.1087   32.3472 C   0  0  0  0  0  0  0  0  0  0  0  0
   23.2656    3.3183   31.7864 C   0  0  0  0  0  0  0  0  0  0  0  0
   24.6165    2.1143   33.2977 O   0  0  0  0  0  0  0  0  0  0  0  0
   25.8225    1.9829   34.0425 C   0  0  0  0  0  0  0  0  0  0  0  0
   24.3193   12.8383   31.2120 H   0  0  0  0  0  0  0  0  0  0  0  0
   25.0004   12.2180   29.6699 H   0  0  0  0  0  0  0  0  0  0  0  0
   23.4364   13.1015   29.6699 H   0  0  0  0  0  0  0  0  0  0  0  0
   22.9825   10.6945   29.4639 H   0  0  0  0  0  0  0  0  0  0  0  0
   23.9896   10.3319   30.8910 H   0  0  0  0  0  0  0  0  0  0  0  0
   19.2732    7.2789   32.7797 H   0  0  0  0  0  0  0  0  0  0  0  0
   18.0669   10.4196   34.0449 H   0  0  0  0  0  0  0  0  0  0  0  0
   17.8604    8.6513   33.9291 H   0  0  0  0  0  0  0  0  0  0  0  0
   22.3662    6.8819   30.6809 H   0  0  0  0  0  0  0  0  0  0  0  0
   21.0960    3.5992   30.3716 H   0  0  0  0  0  0  0  0  0  0  0  0
   21.7616    4.8830   29.2542 H   0  0  0  0  0  0  0  0  0  0  0  0
   25.1139    7.6151   30.4106 H   0  0  0  0  0  0  0  0  0  0  0  0
   25.6475    6.8683   28.8665 H   0  0  0  0  0  0  0  0  0  0  0  0
   24.3242    8.0830   28.8665 H   0  0  0  0  0  0  0  0  0  0  0  0
   26.2396    5.5352   30.6528 H   0  0  0  0  0  0  0  0  0  0  0  0
   26.5987    3.7345   32.3282 H   0  0  0  0  0  0  0  0  0  0  0  0
   22.4284    2.6671   32.0780 H   0  0  0  0  0  0  0  0  0  0  0  0
   25.5937    2.0078   35.1182 H   0  0  0  0  0  0  0  0  0  0  0  0
   26.3056    1.0268   33.7924 H   0  0  0  0  0  0  0  0  0  0  0  0
   26.5001    2.8125   33.7924 H   0  0  0  0  0  0  0  0  0  0  0  0
  1  2  1  0
  2  3  1  0
  3  4  1  0
  4 10  2  0
  4  5  1  0
  5  6  2  0
  6  7  1  0
  6 13  1  0
  7  8  2  0
  8  9  1  0
  8 10  1  0
 10 11  1  0
 11 12  3  0
 13 14  1  0
 14 15  2  0
 14 16  1  0
 16 17  1  0
 17 24  1  0
 17 18  2  0
 18 19  1  0
 18 21  1  0
 19 20  1  0
 21 22  2  0
 22 23  1  0
 23 24  2  0
 23 25  1  0
 25 26  1  0
  1 27  1  0
  1 28  1  0
  1 29  1  0
  2 30  1  0
  2 31  1  0
  7 32  1  0
  9 33  1  0
  9 34  1  0
 13 35  1  0
 16 36  1  0
 16 37  1  0
 20 38  1  0
 20 39  1  0
 20 40  1  0
 21 41  1  0
 22 42  1  0
 24 43  1  0
 26 44  1  0
 26 45  1  0
 26 46  1  0
M  END
>  <i_m_stars>  (1) 
0

>  <r_user_dG.exp>  (1) 
-9.9932309999999998

>  <atom.dprop.PartialCharge>  (1) 
-0.10510002173913043 0.14039997826086956 -0.44210002173913043 0.73859997826086965 -0.83200002173913035 0.6281999782608696 -0.39830002173913043 0.30759997826086954 -0.86220002173913035
-0.28630002173913044 0.27079997826086954 -0.39780002173913043 -0.54540002173913038 0.67809997826086965 -0.59010002173913034 -0.10210002173913042 -0.086300021739130428 0.089099978260869572
-0.34690002173913043 0.11569997826086957 -0.16300002173913045 -0.11500002173913043 0.099099978260869567 -0.16000002173913044 -0.32590002173913046 0.11169997826086957 0.050032978260869575
0.050032978260869575 0.050032978260869575 0.050199978260869575 0.050199978260869575 0.18499997826086956 0.44029997826086958 0.44029997826086958 0.35149997826086954 0.089199978260869575
0.089199978260869575 0.048366978260869574 0.048366978260869574 0.048366978260869574 0.14399997826086955 0.15499997826086956 0.14999997826086955 0.046366978260869572 0.046366978260869572
0.046366978260869572

$$$$
