@<TRIPOS>MOLECULE
MOL
   46    47     1     0     0
SMALL
No Charge or Current Charge


@<TRIPOS>ATOM
      1 C1          24.0730    12.4030    30.2320 c3         1 MOL       0.000000
      2 C2          23.3270    11.0820    30.4340 c3         1 MOL       0.000000
      3 O1          22.2090    11.3390    31.2790 os         1 MOL       0.000000
      4 C3          21.4080    10.2890    31.6940 ca         1 MOL       0.000000
      5 N1          21.7460     9.0390    31.2730 nb         1 MOL       0.000000
      6 C4          20.9690     8.0100    31.6440 ca         1 MOL       0.000000
      7 C5          19.8630     8.1540    32.4700 ca         1 MOL       0.000000
      8 C6          19.5190     9.4250    32.8940 ca         1 MOL       0.000000
      9 N2          18.3840     9.5060    33.6910 nv         1 MOL       0.000000
     10 C7          20.2910    10.5310    32.5020 ca         1 MOL       0.000000
     11 C8          19.9690    11.9010    32.8840 cg         1 MOL       0.000000
     12 N3          19.7200    12.9910    33.1810 n1         1 MOL       0.000000
     13 N4          21.4260     6.8280    31.0990 ns         1 MOL       0.000000
     14 C9          20.8490     5.6260    31.0240 c          1 MOL       0.000000
     15 O2          19.7220     5.3640    31.4400 o          1 MOL       0.000000
     16 C10         21.6450     4.5490    30.2960 c3         1 MOL       0.000000
     17 C11         23.0490     4.3420    30.8590 ca         1 MOL       0.000000
     18 C12         24.1090     5.1750    30.4710 ca         1 MOL       0.000000
     19 O3          23.8250     6.2110    29.5990 os         1 MOL       0.000000
     20 C13         24.7820     7.2540    29.4260 c3         1 MOL       0.000000
     21 C14         25.3880     4.9250    30.9870 ca         1 MOL       0.000000
     22 C15         25.5910     3.9090    31.9220 ca         1 MOL       0.000000
     23 C16         24.5220     3.1090    32.3470 ca         1 MOL       0.000000
     24 C17         23.2660     3.3180    31.7860 ca         1 MOL       0.000000
     25 O4          24.6160     2.1140    33.2980 os         1 MOL       0.000000
     26 C18         25.8230     1.9830    34.0420 c3         1 MOL       0.000000
     27 H1          24.3190    12.8380    31.2120 hc         1 MOL       0.000000
     28 H2          25.0000    12.2180    29.6700 hc         1 MOL       0.000000
     29 H3          23.4360    13.1010    29.6700 hc         1 MOL       0.000000
     30 H4          22.9830    10.6940    29.4640 h1         1 MOL       0.000000
     31 H5          23.9900    10.3320    30.8910 h1         1 MOL       0.000000
     32 H6          19.2730     7.2790    32.7800 ha         1 MOL       0.000000
     33 H7          18.0670    10.4200    34.0450 hn         1 MOL       0.000000
     34 H8          17.8600     8.6510    33.9290 hn         1 MOL       0.000000
     35 H9          22.3660     6.8820    30.6810 hn         1 MOL       0.000000
     36 H10         21.0960     3.5990    30.3720 hc         1 MOL       0.000000
     37 H11         21.7620     4.8830    29.2540 hc         1 MOL       0.000000
     38 H12         25.1140     7.6150    30.4110 h1         1 MOL       0.000000
     39 H13         25.6480     6.8680    28.8660 h1         1 MOL       0.000000
     40 H14         24.3240     8.0830    28.8660 h1         1 MOL       0.000000
     41 H15         26.2400     5.5350    30.6530 ha         1 MOL       0.000000
     42 H16         26.5990     3.7350    32.3280 ha         1 MOL       0.000000
     43 H17         22.4280     2.6670    32.0780 ha         1 MOL       0.000000
     44 H18         25.5940     2.0080    35.1180 h1         1 MOL       0.000000
     45 H19         26.3060     1.0270    33.7920 h1         1 MOL       0.000000
     46 H20         26.5000     2.8120    33.7920 h1         1 MOL       0.000000
@<TRIPOS>BOND
     1     1     2 1   
     2     2     3 1   
     3     3     4 1   
     4     4    10 ar  
     5     4     5 ar  
     6     5     6 ar  
     7     6     7 ar  
     8     6    13 1   
     9     7     8 ar  
    10     8     9 1   
    11     8    10 ar  
    12    10    11 1   
    13    11    12 3   
    14    13    14 1   
    15    14    15 2   
    16    14    16 1   
    17    16    17 1   
    18    17    24 ar  
    19    17    18 ar  
    20    18    19 1   
    21    18    21 ar  
    22    19    20 1   
    23    21    22 ar  
    24    22    23 ar  
    25    23    24 ar  
    26    23    25 1   
    27    25    26 1   
    28     1    27 1   
    29     1    28 1   
    30     1    29 1   
    31     2    30 1   
    32     2    31 1   
    33     7    32 1   
    34     9    33 1   
    35     9    34 1   
    36    13    35 1   
    37    16    36 1   
    38    16    37 1   
    39    20    38 1   
    40    20    39 1   
    41    20    40 1   
    42    21    41 1   
    43    22    42 1   
    44    24    43 1   
    45    26    44 1   
    46    26    45 1   
    47    26    46 1   
@<TRIPOS>SUBSTRUCTURE
     1 MOL         1 TEMP              0 ****  ****    0 ROOT
