ejm_31
     RDKit          3D

 32 33  0  0  0  0  0  0  0  0999 V2000
   -1.9612   21.5502  -27.3300 C   0  0  0  0  0  0  0  0  0  0  0  0
   -1.2942   22.4120  -28.1957 C   0  0  0  0  0  0  0  0  0  0  0  0
   -1.9550   22.9520  -29.2938 C   0  0  0  0  0  0  0  0  0  0  0  0
   -3.2998   22.6223  -29.5426 C   0  0  0  0  0  0  0  0  0  0  0  0
   -3.9689   21.7588  -28.6534 C   0  0  0  0  0  0  0  0  0  0  0  0
   -3.2917   21.2292  -27.5624 C   0  0  0  0  0  0  0  0  0  0  0  0
   -5.6403   21.3533  -28.9190 Cl  0  0  0  0  0  0  0  0  0  0  0  0
   -4.0401   23.1522  -30.7110 C   0  0  0  0  0  0  0  0  0  0  0  0
   -4.2265   22.4198  -31.6685 O   0  0  0  0  0  0  0  0  0  0  0  0
   -4.5133   24.4119  -30.6476 N   0  0  0  0  0  0  0  0  0  0  0  0
   -5.2869   25.1112  -31.5800 C   0  0  0  0  0  0  0  0  0  0  0  0
   -5.9620   24.5479  -32.6807 C   0  0  0  0  0  0  0  0  0  0  0  0
   -6.7806   25.3609  -33.4589 C   0  0  0  0  0  0  0  0  0  0  0  0
   -6.9234   26.6542  -33.1828 N   0  0  0  0  0  0  0  0  0  0  0  0
   -6.2984   27.2317  -32.1577 C   0  0  0  0  0  0  0  0  0  0  0  0
   -5.5070   26.4571  -31.3066 C   0  0  0  0  0  0  0  0  0  0  0  0
   -6.5391   28.5828  -31.8838 N   0  0  0  0  0  0  0  0  0  0  0  0
   -5.7134   29.4445  -31.2331 C   0  0  0  0  0  0  0  0  0  0  0  0
   -4.6156   29.1218  -30.8098 O   0  0  0  0  0  0  0  0  0  0  0  0
   -6.2319   30.8471  -31.0310 C   0  0  0  0  0  0  0  0  0  0  0  0
   -1.1124   24.0506  -30.3318 Cl  0  0  0  0  0  0  0  0  0  0  0  0
   -7.3054   30.9413  -31.1624 H   0  0  0  0  0  0  0  0  0  0  0  0
   -1.4436   21.1321  -26.4786 H   0  0  0  0  0  0  0  0  0  0  0  0
   -0.2591   22.6635  -28.0157 H   0  0  0  0  0  0  0  0  0  0  0  0
   -3.8111   20.5610  -26.8909 H   0  0  0  0  0  0  0  0  0  0  0  0
   -4.3168   24.9848  -29.8393 H   0  0  0  0  0  0  0  0  0  0  0  0
   -5.8400   23.4993  -32.9094 H   0  0  0  0  0  0  0  0  0  0  0  0
   -7.3119   24.9439  -34.3018 H   0  0  0  0  0  0  0  0  0  0  0  0
   -5.0645   26.9093  -30.4313 H   0  0  0  0  0  0  0  0  0  0  0  0
   -7.4045   29.0126  -32.1802 H   0  0  0  0  0  0  0  0  0  0  0  0
   -5.7229   31.5232  -31.7179 H   0  0  0  0  0  0  0  0  0  0  0  0
   -5.9579   31.1937  -30.0346 H   0  0  0  0  0  0  0  0  0  0  0  0
  1  2  2  0
  1  6  1  0
  1 23  1  0
  2  3  1  0
  2 24  1  0
  3  4  2  0
  3 21  1  0
  4  5  1  0
  4  8  1  0
  5  6  2  0
  5  7  1  0
  6 25  1  0
  8  9  2  0
  8 10  1  0
 10 11  1  0
 10 26  1  0
 11 12  2  0
 11 16  1  0
 12 13  1  0
 12 27  1  0
 13 14  2  0
 13 28  1  0
 14 15  1  0
 15 16  2  0
 15 17  1  0
 16 29  1  0
 17 18  1  0
 17 30  1  0
 18 19  2  0
 18 20  1  0
 20 22  1  0
 20 31  1  0
 20 32  1  0
M  END
>  <r_user_dG.exp>  (1) 
-9.5399999999999991

>  <atom.dprop.PartialCharge>  (1) 
-0.095031249999999998 -0.12803124999999999 0.051368750000000005 -0.14463124999999999 0.051368750000000005 -0.12803124999999999 -0.060431249999999999 0.69266874999999994
-0.55413125000000008 -0.46213124999999999 0.13256875000000001 -0.33733124999999997 0.44816875 -0.68503125000000009 0.56416875 -0.32933124999999996 -0.56843125000000005 0.66906874999999999
-0.54013125000000006 -0.18113124999999999 -0.060431249999999999 0.06766875 0.14896875000000001 0.15796875000000002 0.15796875000000002 0.32746875000000003 0.14196875 0.027068750000000003
0.17696875000000001 0.32346875000000003 0.06766875 0.06766875

$$$$
