jmc_30
     RDKit          3D

 37 39  0  0  0  0  0  0  0  0999 V2000
    0.5262   -1.6430   -6.7261 C   0  0  0  0  0  0  0  0  0  0  0  0
    0.0451   -1.9892   -7.9853 C   0  0  0  0  0  0  0  0  0  0  0  0
   -1.3055   -2.2666   -8.1676 C   0  0  0  0  0  0  0  0  0  0  0  0
   -2.1928   -2.2089   -7.0775 C   0  0  0  0  0  0  0  0  0  0  0  0
   -1.6976   -1.8456   -5.8099 C   0  0  0  0  0  0  0  0  0  0  0  0
   -0.3453   -1.5727   -5.6478 C   0  0  0  0  0  0  0  0  0  0  0  0
   -2.7749   -1.7392   -4.4473 Cl  0  0  0  0  0  0  0  0  0  0  0  0
   -3.6348   -2.5183   -7.2152 C   0  0  0  0  0  0  0  0  0  0  0  0
   -4.0433   -3.5978   -6.8206 O   0  0  0  0  0  0  0  0  0  0  0  0
   -4.4425   -1.5733   -7.7344 N   0  0  0  0  0  0  0  0  0  0  0  0
   -5.8304   -1.5975   -7.9073 C   0  0  0  0  0  0  0  0  0  0  0  0
   -6.7185   -2.5243   -7.3268 C   0  0  0  0  0  0  0  0  0  0  0  0
   -8.0875   -2.3528   -7.5087 C   0  0  0  0  0  0  0  0  0  0  0  0
   -8.5615   -1.3381   -8.2262 N   0  0  0  0  0  0  0  0  0  0  0  0
   -7.7595   -0.4425   -8.8005 C   0  0  0  0  0  0  0  0  0  0  0  0
   -6.3788   -0.5287   -8.6082 C   0  0  0  0  0  0  0  0  0  0  0  0
   -8.3233    0.6365   -9.4907 N   0  0  0  0  0  0  0  0  0  0  0  0
   -7.7484    1.3585  -10.4886 C   0  0  0  0  0  0  0  0  0  0  0  0
   -6.6316    1.1242  -10.9205 O   0  0  0  0  0  0  0  0  0  0  0  0
   -8.5595    2.5050  -11.0403 C   0  0  1  0  0  0  0  0  0  0  0  0
   -7.8587    3.6034  -11.8463 C   0  0  0  0  0  0  0  0  0  0  0  0
   -8.7739    2.5981  -12.5476 C   0  0  1  0  0  0  0  0  0  0  0  0
   -8.1280    1.5417  -13.3943 C   0  0  0  0  0  0  0  0  0  0  0  0
   -1.8825   -2.6570   -9.7515 Cl  0  0  0  0  0  0  0  0  0  0  0  0
   -7.4944    0.5058  -14.2246 N   0  0  0  0  0  0  0  0  0  0  0  0
    1.5953   -1.4254   -6.5855 H   0  0  0  0  0  0  0  0  0  0  0  0
    0.7358   -2.0436   -8.8397 H   0  0  0  0  0  0  0  0  0  0  0  0
    0.0391   -1.2980   -4.6545 H   0  0  0  0  0  0  0  0  0  0  0  0
   -3.9721   -0.7123   -8.0480 H   0  0  0  0  0  0  0  0  0  0  0  0
   -6.3355   -3.3711   -6.7384 H   0  0  0  0  0  0  0  0  0  0  0  0
   -8.7883   -3.0673   -7.0521 H   0  0  0  0  0  0  0  0  0  0  0  0
   -5.7208    0.2539   -9.0138 H   0  0  0  0  0  0  0  0  0  0  0  0
   -9.2757    0.9131   -9.2128 H   0  0  0  0  0  0  0  0  0  0  0  0
   -9.2160    2.4911  -10.1578 H   0  0  0  0  0  0  0  0  0  0  0  0
   -8.1732    4.6519  -11.7377 H   0  0  0  0  0  0  0  0  0  0  0  0
   -6.8164    3.9304  -11.9756 H   0  0  0  0  0  0  0  0  0  0  0  0
   -9.6497    2.6791  -13.2083 H   0  0  0  0  0  0  0  0  0  0  0  0
  1  2  2  0
  1  6  1  0
  2  3  1  0
  3  4  2  0
  3 24  1  0
  4  5  1  0
  4  8  1  0
  5  6  2  0
  5  7  1  0
  8  9  2  0
  8 10  1  0
 10 11  1  0
 11 12  2  0
 11 16  1  0
 12 13  1  0
 13 14  2  0
 14 15  1  0
 15 16  2  0
 15 17  1  0
 17 18  1  0
 18 19  2  0
 18 20  1  0
 20 21  1  0
 20 22  1  0
 21 22  1  0
 22 23  1  0
 23 25  3  0
  1 26  1  0
  2 27  1  0
  6 28  1  0
 10 29  1  0
 12 30  1  0
 13 31  1  0
 16 32  1  0
 17 33  1  0
 20 34  1  1
 21 35  1  0
 21 36  1  0
 22 37  1  1
M  END
>  <r_user_dG.exp>  (1) 
-10.94

>  <atom.dprop.PartialCharge>  (1) 
-0.095108108108108103 -0.1286081081081081 0.051291891891891893 -0.14570810810810811 0.051291891891891893 -0.1286081081081081 -0.059008108108108109 0.69259189189189185 -0.55220810810810816
-0.46220810810810814 0.13249189189189189 -0.33240810810810811 0.44709189189189186 -0.68410810810810818 0.5610918918918919 -0.3194081081081081 -0.55950810810810814 0.69699189189189192
-0.53020810810810814 -0.19180810810810811 -0.075508108108108096 -0.078708108108108105 0.22659189189189191 -0.059008108108108109 -0.34890810810810813 0.14889189189189189 0.1578918918918919
0.1578918918918919 0.32739189189189188 0.14289189189189189 0.026991891891891891 0.17889189189189189 0.33039189189189189 0.1155918918918919 0.095591891891891892 0.095591891891891892
0.11359189189189189

$$$$
