ejm_43
     RDKit          3D

 38 39  0  0  0  0  0  0  0  0999 V2000
    0.5262   -1.6430   -6.7261 C   0  0  0  0  0  0  0  0  0  0  0  0
    0.0451   -1.9892   -7.9853 C   0  0  0  0  0  0  0  0  0  0  0  0
   -1.3055   -2.2666   -8.1676 C   0  0  0  0  0  0  0  0  0  0  0  0
   -2.1928   -2.2089   -7.0775 C   0  0  0  0  0  0  0  0  0  0  0  0
   -1.6976   -1.8456   -5.8099 C   0  0  0  0  0  0  0  0  0  0  0  0
   -0.3453   -1.5727   -5.6478 C   0  0  0  0  0  0  0  0  0  0  0  0
   -2.7749   -1.7392   -4.4473 Cl  0  0  0  0  0  0  0  0  0  0  0  0
   -3.6348   -2.5183   -7.2152 C   0  0  0  0  0  0  0  0  0  0  0  0
   -4.0433   -3.5978   -6.8206 O   0  0  0  0  0  0  0  0  0  0  0  0
   -4.4425   -1.5733   -7.7344 N   0  0  0  0  0  0  0  0  0  0  0  0
   -5.8304   -1.5975   -7.9073 C   0  0  0  0  0  0  0  0  0  0  0  0
   -6.7185   -2.5243   -7.3268 C   0  0  0  0  0  0  0  0  0  0  0  0
   -8.0875   -2.3528   -7.5087 C   0  0  0  0  0  0  0  0  0  0  0  0
   -8.5615   -1.3381   -8.2262 N   0  0  0  0  0  0  0  0  0  0  0  0
   -7.7595   -0.4425   -8.8005 C   0  0  0  0  0  0  0  0  0  0  0  0
   -6.3788   -0.5287   -8.6082 C   0  0  0  0  0  0  0  0  0  0  0  0
   -8.3233    0.6365   -9.4907 N   0  0  0  0  0  0  0  0  0  0  0  0
   -7.7484    1.3585  -10.4886 C   0  0  0  0  0  0  0  0  0  0  0  0
   -6.6316    1.1242  -10.9205 O   0  0  0  0  0  0  0  0  0  0  0  0
   -8.5595    2.5050  -11.0403 C   0  0  0  0  0  0  0  0  0  0  0  0
   -1.8825   -2.6570   -9.7515 Cl  0  0  0  0  0  0  0  0  0  0  0  0
  -10.0174    2.1927  -11.2048 C   0  0  0  0  0  0  0  0  0  0  0  0
   -7.9892    2.9276  -12.3616 C   0  0  0  0  0  0  0  0  0  0  0  0
    1.5953   -1.4254   -6.5855 H   0  0  0  0  0  0  0  0  0  0  0  0
    0.7358   -2.0436   -8.8397 H   0  0  0  0  0  0  0  0  0  0  0  0
    0.0391   -1.2980   -4.6545 H   0  0  0  0  0  0  0  0  0  0  0  0
   -3.9721   -0.7123   -8.0480 H   0  0  0  0  0  0  0  0  0  0  0  0
   -6.3355   -3.3711   -6.7384 H   0  0  0  0  0  0  0  0  0  0  0  0
   -8.7883   -3.0673   -7.0521 H   0  0  0  0  0  0  0  0  0  0  0  0
   -5.7208    0.2539   -9.0138 H   0  0  0  0  0  0  0  0  0  0  0  0
   -9.2757    0.9131   -9.2128 H   0  0  0  0  0  0  0  0  0  0  0  0
   -8.4954    3.3169  -10.3009 H   0  0  0  0  0  0  0  0  0  0  0  0
  -10.4850    2.0925  -10.2142 H   0  0  0  0  0  0  0  0  0  0  0  0
  -10.5063    3.0065  -11.7604 H   0  0  0  0  0  0  0  0  0  0  0  0
  -10.1300    1.2501  -11.7604 H   0  0  0  0  0  0  0  0  0  0  0  0
   -7.1157    3.5748  -12.1938 H   0  0  0  0  0  0  0  0  0  0  0  0
   -7.6821    2.0373  -12.9300 H   0  0  0  0  0  0  0  0  0  0  0  0
   -8.7515    3.4806  -12.9300 H   0  0  0  0  0  0  0  0  0  0  0  0
  1  2  2  0
  1  6  1  0
  2  3  1  0
  3  4  2  0
  3 21  1  0
  4  5  1  0
  4  8  1  0
  5  6  2  0
  5  7  1  0
  8  9  2  0
  8 10  1  0
 10 11  1  0
 11 12  2  0
 11 16  1  0
 12 13  1  0
 13 14  2  0
 14 15  1  0
 15 16  2  0
 15 17  1  0
 17 18  1  0
 18 19  2  0
 18 20  1  0
 20 22  1  0
 20 23  1  0
  1 24  1  0
  2 25  1  0
  6 26  1  0
 10 27  1  0
 12 28  1  0
 13 29  1  0
 16 30  1  0
 17 31  1  0
 20 32  1  0
 22 33  1  0
 22 34  1  0
 22 35  1  0
 23 36  1  0
 23 37  1  0
 23 38  1  0
M  END
>  <r_user_dG.exp>  (1) 
-8.2599999999999998

>  <atom.dprop.PartialCharge>  (1) 
-0.095947421052631571 -0.12894742105263157 0.052452578947368426 -0.14354742105263157 0.052452578947368426 -0.12894742105263157 -0.060347421052631578 0.69175257894736841 -0.5500474210526316
-0.46004742105263158 0.12765257894736842 -0.30524742105263158 0.44525257894736842 -0.73794742105263156 0.55225257894736846 -0.32424742105263155 -0.54734742105263157 0.67115257894736846
-0.59504742105263153 -0.13864742105263156 -0.060347421052631578 -0.096047421052631574 -0.096047421052631574 0.14805257894736842 0.15705257894736843 0.15705257894736843 0.33055257894736845
0.18305257894736843 0.025152578947368425 0.18005257894736842 0.33355257894736845 0.088752578947368432 0.045419578947368422 0.045419578947368422 0.045419578947368422 0.045419578947368422
0.045419578947368422 0.045419578947368422

$$$$
