jmc_28
     RDKit          3D

 39 41  0  0  0  0  0  0  0  0999 V2000
    0.5262   -1.6430   -6.7261 C   0  0  0  0  0  0  0  0  0  0  0  0
    0.0451   -1.9892   -7.9853 C   0  0  0  0  0  0  0  0  0  0  0  0
   -1.3055   -2.2666   -8.1676 C   0  0  0  0  0  0  0  0  0  0  0  0
   -2.1928   -2.2089   -7.0775 C   0  0  0  0  0  0  0  0  0  0  0  0
   -1.6976   -1.8456   -5.8099 C   0  0  0  0  0  0  0  0  0  0  0  0
   -0.3453   -1.5727   -5.6478 C   0  0  0  0  0  0  0  0  0  0  0  0
   -2.7749   -1.7392   -4.4473 Cl  0  0  0  0  0  0  0  0  0  0  0  0
   -3.6348   -2.5183   -7.2152 C   0  0  0  0  0  0  0  0  0  0  0  0
   -4.0433   -3.5978   -6.8206 O   0  0  0  0  0  0  0  0  0  0  0  0
   -4.4425   -1.5733   -7.7344 N   0  0  0  0  0  0  0  0  0  0  0  0
   -5.8304   -1.5975   -7.9073 C   0  0  0  0  0  0  0  0  0  0  0  0
   -6.7185   -2.5243   -7.3268 C   0  0  0  0  0  0  0  0  0  0  0  0
   -8.0875   -2.3528   -7.5087 C   0  0  0  0  0  0  0  0  0  0  0  0
   -8.5615   -1.3381   -8.2262 N   0  0  0  0  0  0  0  0  0  0  0  0
   -7.7595   -0.4425   -8.8005 C   0  0  0  0  0  0  0  0  0  0  0  0
   -6.3788   -0.5287   -8.6082 C   0  0  0  0  0  0  0  0  0  0  0  0
   -8.3233    0.6365   -9.4907 N   0  0  0  0  0  0  0  0  0  0  0  0
   -7.7484    1.3585  -10.4886 C   0  0  0  0  0  0  0  0  0  0  0  0
   -6.6316    1.1242  -10.9205 O   0  0  0  0  0  0  0  0  0  0  0  0
   -8.5595    2.5050  -11.0403 C   0  0  1  0  0  0  0  0  0  0  0  0
   -7.8587    3.6034  -11.8463 C   0  0  0  0  0  0  0  0  0  0  0  0
   -8.7739    2.5981  -12.5476 C   0  0  1  0  0  0  0  0  0  0  0  0
   -8.1280    1.5417  -13.3943 C   0  0  0  0  0  0  0  0  0  0  0  0
   -1.8825   -2.6570   -9.7515 Cl  0  0  0  0  0  0  0  0  0  0  0  0
    1.5953   -1.4254   -6.5855 H   0  0  0  0  0  0  0  0  0  0  0  0
    0.7358   -2.0436   -8.8397 H   0  0  0  0  0  0  0  0  0  0  0  0
    0.0391   -1.2980   -4.6545 H   0  0  0  0  0  0  0  0  0  0  0  0
   -3.9721   -0.7123   -8.0480 H   0  0  0  0  0  0  0  0  0  0  0  0
   -6.3355   -3.3711   -6.7384 H   0  0  0  0  0  0  0  0  0  0  0  0
   -8.7883   -3.0673   -7.0521 H   0  0  0  0  0  0  0  0  0  0  0  0
   -5.7208    0.2539   -9.0138 H   0  0  0  0  0  0  0  0  0  0  0  0
   -9.2757    0.9131   -9.2128 H   0  0  0  0  0  0  0  0  0  0  0  0
   -9.2160    2.4911  -10.1578 H   0  0  0  0  0  0  0  0  0  0  0  0
   -8.1732    4.6519  -11.7377 H   0  0  0  0  0  0  0  0  0  0  0  0
   -6.8164    3.9304  -11.9756 H   0  0  0  0  0  0  0  0  0  0  0  0
   -9.6497    2.6791  -13.2083 H   0  0  0  0  0  0  0  0  0  0  0  0
   -7.6648    0.7840  -12.7452 H   0  0  0  0  0  0  0  0  0  0  0  0
   -8.8891    1.0647  -14.0293 H   0  0  0  0  0  0  0  0  0  0  0  0
   -7.3565    2.0017  -14.0293 H   0  0  0  0  0  0  0  0  0  0  0  0
  1  2  2  0
  1  6  1  0
  2  3  1  0
  3  4  2  0
  3 24  1  0
  4  5  1  0
  4  8  1  0
  5  6  2  0
  5  7  1  0
  8  9  2  0
  8 10  1  0
 10 11  1  0
 11 12  2  0
 11 16  1  0
 12 13  1  0
 13 14  2  0
 14 15  1  0
 15 16  2  0
 15 17  1  0
 17 18  1  0
 18 19  2  0
 18 20  1  0
 20 21  1  0
 20 22  1  0
 21 22  1  0
 22 23  1  0
  1 25  1  0
  2 26  1  0
  6 27  1  0
 10 28  1  0
 12 29  1  0
 13 30  1  0
 16 31  1  0
 17 32  1  0
 20 33  1  1
 21 34  1  0
 21 35  1  0
 22 36  1  1
 23 37  1  0
 23 38  1  0
 23 39  1  0
M  END
>  <r_user_dG.exp>  (1) 
-10.98

>  <atom.dprop.PartialCharge>  (1) 
-0.097051282051282065 -0.12955128205128205 0.050848717948717946 -0.14165128205128205 0.050848717948717946 -0.12955128205128205 -0.058951282051282056 0.68864871794871796
-0.53615128205128204 -0.46515128205128209 0.12454871794871794 -0.33135128205128206 0.44314871794871791 -0.73505128205128201 0.545148717948718 -0.27435128205128206 -0.55045128205128202
0.69504871794871803 -0.56715128205128207 -0.21575128205128205 -0.097451282051282062 -0.11175128205128206 -0.080151282051282066 -0.058951282051282056 0.14694871794871794 0.15644871794871795
0.15644871794871795 0.32544871794871794 0.14194871794871794 0.021048717948717943 0.20394871794871794 0.33144871794871794 0.10964871794871794 0.084148717948717935 0.084148717948717935
0.083648717948717935 0.045648717948717943 0.045648717948717943 0.045648717948717943

$$$$
