ejm_49
     RDKit          3D

 39 41  0  0  0  0  0  0  0  0999 V2000
    0.5262   -1.6430   -6.7261 C   0  0  0  0  0  0  0  0  0  0  0  0
    0.0451   -1.9892   -7.9853 C   0  0  0  0  0  0  0  0  0  0  0  0
   -1.3055   -2.2666   -8.1676 C   0  0  0  0  0  0  0  0  0  0  0  0
   -2.1928   -2.2089   -7.0775 C   0  0  0  0  0  0  0  0  0  0  0  0
   -1.6976   -1.8456   -5.8099 C   0  0  0  0  0  0  0  0  0  0  0  0
   -0.3453   -1.5727   -5.6478 C   0  0  0  0  0  0  0  0  0  0  0  0
   -2.7749   -1.7392   -4.4473 Cl  0  0  0  0  0  0  0  0  0  0  0  0
   -3.6348   -2.5183   -7.2152 C   0  0  0  0  0  0  0  0  0  0  0  0
   -4.0433   -3.5978   -6.8206 O   0  0  0  0  0  0  0  0  0  0  0  0
   -4.4425   -1.5733   -7.7344 N   0  0  0  0  0  0  0  0  0  0  0  0
   -5.8304   -1.5975   -7.9073 C   0  0  0  0  0  0  0  0  0  0  0  0
   -6.7185   -2.5243   -7.3268 C   0  0  0  0  0  0  0  0  0  0  0  0
   -8.0875   -2.3528   -7.5087 C   0  0  0  0  0  0  0  0  0  0  0  0
   -8.5615   -1.3381   -8.2262 N   0  0  0  0  0  0  0  0  0  0  0  0
   -7.7595   -0.4425   -8.8005 C   0  0  0  0  0  0  0  0  0  0  0  0
   -6.3788   -0.5287   -8.6082 C   0  0  0  0  0  0  0  0  0  0  0  0
   -8.3233    0.6365   -9.4907 N   0  0  0  0  0  0  0  0  0  0  0  0
   -7.7484    1.3585  -10.4886 C   0  0  0  0  0  0  0  0  0  0  0  0
   -6.6316    1.1242  -10.9205 O   0  0  0  0  0  0  0  0  0  0  0  0
   -1.8825   -2.6570   -9.7515 Cl  0  0  0  0  0  0  0  0  0  0  0  0
   -9.9658    4.6555  -12.2258 C   0  0  0  0  0  0  0  0  0  0  0  0
  -10.6156    3.4420  -11.9464 C   0  0  0  0  0  0  0  0  0  0  0  0
   -9.8974    2.3741  -11.3837 C   0  0  0  0  0  0  0  0  0  0  0  0
   -8.5295    2.5198  -11.1006 C   0  0  0  0  0  0  0  0  0  0  0  0
   -7.8797    3.7333  -11.3799 C   0  0  0  0  0  0  0  0  0  0  0  0
   -8.5979    4.8012  -11.9426 C   0  0  0  0  0  0  0  0  0  0  0  0
    1.5953   -1.4254   -6.5855 H   0  0  0  0  0  0  0  0  0  0  0  0
    0.7358   -2.0436   -8.8397 H   0  0  0  0  0  0  0  0  0  0  0  0
    0.0391   -1.2980   -4.6545 H   0  0  0  0  0  0  0  0  0  0  0  0
   -3.9721   -0.7123   -8.0480 H   0  0  0  0  0  0  0  0  0  0  0  0
   -6.3355   -3.3711   -6.7384 H   0  0  0  0  0  0  0  0  0  0  0  0
   -8.7883   -3.0673   -7.0521 H   0  0  0  0  0  0  0  0  0  0  0  0
   -5.7208    0.2539   -9.0138 H   0  0  0  0  0  0  0  0  0  0  0  0
   -9.2757    0.9131   -9.2128 H   0  0  0  0  0  0  0  0  0  0  0  0
  -10.5283    5.4918  -12.6665 H   0  0  0  0  0  0  0  0  0  0  0  0
  -11.6869    3.3280  -12.1683 H   0  0  0  0  0  0  0  0  0  0  0  0
  -10.4062    1.4238  -11.1648 H   0  0  0  0  0  0  0  0  0  0  0  0
   -6.8084    3.8473  -11.1580 H   0  0  0  0  0  0  0  0  0  0  0  0
   -8.0891    5.7516  -12.1615 H   0  0  0  0  0  0  0  0  0  0  0  0
  1  2  2  0
  1  6  1  0
  2  3  1  0
  3  4  2  0
  3 20  1  0
  4  5  1  0
  4  8  1  0
  5  6  2  0
  5  7  1  0
  8  9  2  0
  8 10  1  0
 10 11  1  0
 11 12  2  0
 11 16  1  0
 12 13  1  0
 13 14  2  0
 14 15  1  0
 15 16  2  0
 15 17  1  0
 17 18  1  0
 18 19  2  0
 18 24  1  0
 21 22  2  0
 21 26  1  0
 22 23  1  0
 23 24  2  0
 24 25  1  0
 25 26  2  0
  1 27  1  0
  2 28  1  0
  6 29  1  0
 10 30  1  0
 12 31  1  0
 13 32  1  0
 16 33  1  0
 17 34  1  0
 21 35  1  0
 22 36  1  0
 23 37  1  0
 25 38  1  0
 26 39  1  0
M  END
>  <r_user_dG.exp>  (1) 
-7.75

>  <atom.dprop.PartialCharge>  (1) 
-0.095948717948717954 -0.12894871794871796 0.052451282051282057 -0.14354871794871796 0.052451282051282057 -0.12894871794871796 -0.059848717948717947 0.691751282051282 -0.55004871794871801
-0.46004871794871793 0.12765128205128204 -0.30324871794871794 0.44425128205128206 -0.73594871794871797 0.55025128205128204 -0.3202487179487179 -0.54734871794871798 0.684751282051282
-0.58704871794871794 -0.059848717948717947 -0.10494871794871795 -0.13694871794871796 -0.089448717948717948 -0.14954871794871796 -0.089448717948717948 -0.13694871794871796
0.14805128205128204 0.15705128205128205 0.15705128205128205 0.33055128205128209 0.18305128205128204 0.025151282051282055 0.17805128205128204 0.3355512820512821 0.13705128205128206
0.13955128205128206 0.14705128205128204 0.14705128205128204 0.13955128205128206

$$$$
