@<TRIPOS>MOLECULE
MOL
   39    41     1     0     0
SMALL
No Charge or Current Charge


@<TRIPOS>ATOM
      1 C1           0.5260    -1.6430    -6.7260 ca         1 MOL       0.000000
      2 C2           0.0450    -1.9890    -7.9850 ca         1 MOL       0.000000
      3 C3          -1.3060    -2.2670    -8.1680 ca         1 MOL       0.000000
      4 C4          -2.1930    -2.2090    -7.0770 ca         1 MOL       0.000000
      5 C5          -1.6980    -1.8460    -5.8100 ca         1 MOL       0.000000
      6 C6          -0.3450    -1.5730    -5.6480 ca         1 MOL       0.000000
      7 Cl1         -2.7750    -1.7390    -4.4470 cl         1 MOL       0.000000
      8 C7          -3.6350    -2.5180    -7.2150 c          1 MOL       0.000000
      9 O1          -4.0430    -3.5980    -6.8210 o          1 MOL       0.000000
     10 N1          -4.4420    -1.5730    -7.7340 ns         1 MOL       0.000000
     11 C8          -5.8300    -1.5970    -7.9070 ca         1 MOL       0.000000
     12 C9          -6.7180    -2.5240    -7.3270 ca         1 MOL       0.000000
     13 C10         -8.0880    -2.3530    -7.5090 ca         1 MOL       0.000000
     14 N2          -8.5620    -1.3380    -8.2260 nb         1 MOL       0.000000
     15 C11         -7.7600    -0.4430    -8.8000 ca         1 MOL       0.000000
     16 C12         -6.3790    -0.5290    -8.6080 ca         1 MOL       0.000000
     17 N3          -8.3230     0.6360    -9.4910 ns         1 MOL       0.000000
     18 C13         -7.7480     1.3590   -10.4890 c          1 MOL       0.000000
     19 O2          -6.6320     1.1240   -10.9210 o          1 MOL       0.000000
     20 Cl2         -1.8830    -2.6570    -9.7520 cl         1 MOL       0.000000
     21 C14         -9.9660     4.6550   -12.2260 ca         1 MOL       0.000000
     22 C15        -10.6160     3.4420   -11.9460 ca         1 MOL       0.000000
     23 C16         -9.8970     2.3740   -11.3840 ca         1 MOL       0.000000
     24 C17         -8.5300     2.5200   -11.1010 ca         1 MOL       0.000000
     25 C18         -7.8800     3.7330   -11.3800 ca         1 MOL       0.000000
     26 C19         -8.5980     4.8010   -11.9430 ca         1 MOL       0.000000
     27 H1           1.5950    -1.4250    -6.5850 ha         1 MOL       0.000000
     28 H2           0.7360    -2.0440    -8.8400 ha         1 MOL       0.000000
     29 H3           0.0390    -1.2980    -4.6540 ha         1 MOL       0.000000
     30 H4          -3.9720    -0.7120    -8.0480 hn         1 MOL       0.000000
     31 H5          -6.3350    -3.3710    -6.7380 ha         1 MOL       0.000000
     32 H6          -8.7880    -3.0670    -7.0520 h4         1 MOL       0.000000
     33 H7          -5.7210     0.2540    -9.0140 ha         1 MOL       0.000000
     34 H8          -9.2760     0.9130    -9.2130 hn         1 MOL       0.000000
     35 H9         -10.5280     5.4920   -12.6660 ha         1 MOL       0.000000
     36 H10        -11.6870     3.3280   -12.1680 ha         1 MOL       0.000000
     37 H11        -10.4060     1.4240   -11.1650 ha         1 MOL       0.000000
     38 H12         -6.8080     3.8470   -11.1580 ha         1 MOL       0.000000
     39 H13         -8.0890     5.7520   -12.1620 ha         1 MOL       0.000000
@<TRIPOS>BOND
     1     1     2 ar  
     2     1     6 ar  
     3     2     3 ar  
     4     3     4 ar  
     5     3    20 1   
     6     4     5 ar  
     7     4     8 1   
     8     5     6 ar  
     9     5     7 1   
    10     8     9 2   
    11     8    10 1   
    12    10    11 1   
    13    11    12 ar  
    14    11    16 ar  
    15    12    13 ar  
    16    13    14 ar  
    17    14    15 ar  
    18    15    16 ar  
    19    15    17 1   
    20    17    18 1   
    21    18    19 2   
    22    18    24 1   
    23    21    22 ar  
    24    21    26 ar  
    25    22    23 ar  
    26    23    24 ar  
    27    24    25 ar  
    28    25    26 ar  
    29     1    27 1   
    30     2    28 1   
    31     6    29 1   
    32    10    30 1   
    33    12    31 1   
    34    13    32 1   
    35    16    33 1   
    36    17    34 1   
    37    21    35 1   
    38    22    36 1   
    39    23    37 1   
    40    25    38 1   
    41    26    39 1   
@<TRIPOS>SUBSTRUCTURE
     1 MOL         1 TEMP              0 ****  ****    0 ROOT
