ejm_45
     RDKit          3D

 39 41  0  0  0  0  0  0  0  0999 V2000
    0.5262   -1.6430   -6.7261 C   0  0  0  0  0  0  0  0  0  0  0  0
    0.0451   -1.9892   -7.9853 C   0  0  0  0  0  0  0  0  0  0  0  0
   -1.3055   -2.2666   -8.1676 C   0  0  0  0  0  0  0  0  0  0  0  0
   -2.1928   -2.2089   -7.0775 C   0  0  0  0  0  0  0  0  0  0  0  0
   -1.6976   -1.8456   -5.8099 C   0  0  0  0  0  0  0  0  0  0  0  0
   -0.3453   -1.5727   -5.6478 C   0  0  0  0  0  0  0  0  0  0  0  0
   -2.7749   -1.7392   -4.4473 Cl  0  0  0  0  0  0  0  0  0  0  0  0
   -3.6348   -2.5183   -7.2152 C   0  0  0  0  0  0  0  0  0  0  0  0
   -4.0433   -3.5978   -6.8206 O   0  0  0  0  0  0  0  0  0  0  0  0
   -4.4425   -1.5733   -7.7344 N   0  0  0  0  0  0  0  0  0  0  0  0
   -5.8304   -1.5975   -7.9073 C   0  0  0  0  0  0  0  0  0  0  0  0
   -6.7185   -2.5243   -7.3268 C   0  0  0  0  0  0  0  0  0  0  0  0
   -8.0875   -2.3528   -7.5087 C   0  0  0  0  0  0  0  0  0  0  0  0
   -8.5615   -1.3381   -8.2262 N   0  0  0  0  0  0  0  0  0  0  0  0
   -7.7595   -0.4425   -8.8005 C   0  0  0  0  0  0  0  0  0  0  0  0
   -6.3788   -0.5287   -8.6082 C   0  0  0  0  0  0  0  0  0  0  0  0
   -8.3233    0.6365   -9.4907 N   0  0  0  0  0  0  0  0  0  0  0  0
   -7.7484    1.3585  -10.4886 C   0  0  0  0  0  0  0  0  0  0  0  0
   -6.6316    1.1242  -10.9205 O   0  0  0  0  0  0  0  0  0  0  0  0
   -8.5595    2.5050  -11.0403 C   0  0  0  0  0  0  0  0  0  0  0  0
   -1.8825   -2.6570   -9.7515 Cl  0  0  0  0  0  0  0  0  0  0  0  0
   -8.0315    2.9425  -12.3279 C   0  0  0  0  0  0  0  0  0  0  0  0
   -6.5409    2.8702  -12.5310 C   0  0  0  0  0  0  0  0  0  0  0  0
   -7.4450    1.8923  -13.2341 C   0  0  0  0  0  0  0  0  0  0  0  0
    1.5953   -1.4254   -6.5855 H   0  0  0  0  0  0  0  0  0  0  0  0
    0.7358   -2.0436   -8.8397 H   0  0  0  0  0  0  0  0  0  0  0  0
    0.0391   -1.2980   -4.6545 H   0  0  0  0  0  0  0  0  0  0  0  0
   -3.9721   -0.7123   -8.0480 H   0  0  0  0  0  0  0  0  0  0  0  0
   -6.3355   -3.3711   -6.7384 H   0  0  0  0  0  0  0  0  0  0  0  0
   -8.7883   -3.0673   -7.0521 H   0  0  0  0  0  0  0  0  0  0  0  0
   -5.7208    0.2539   -9.0138 H   0  0  0  0  0  0  0  0  0  0  0  0
   -9.2757    0.9131   -9.2128 H   0  0  0  0  0  0  0  0  0  0  0  0
   -9.6021    2.1792  -11.1702 H   0  0  0  0  0  0  0  0  0  0  0  0
   -8.5058    3.3463  -10.3336 H   0  0  0  0  0  0  0  0  0  0  0  0
   -8.7949    3.7269  -12.4375 H   0  0  0  0  0  0  0  0  0  0  0  0
   -6.0255    3.6538  -13.1056 H   0  0  0  0  0  0  0  0  0  0  0  0
   -5.6686    2.7838  -11.8664 H   0  0  0  0  0  0  0  0  0  0  0  0
   -7.4548    0.8353  -12.9295 H   0  0  0  0  0  0  0  0  0  0  0  0
   -7.6021    1.5922  -14.2806 H   0  0  0  0  0  0  0  0  0  0  0  0
  1  2  2  0
  1  6  1  0
  2  3  1  0
  3  4  2  0
  3 21  1  0
  4  5  1  0
  4  8  1  0
  5  6  2  0
  5  7  1  0
  8  9  2  0
  8 10  1  0
 10 11  1  0
 11 12  2  0
 11 16  1  0
 12 13  1  0
 13 14  2  0
 14 15  1  0
 15 16  2  0
 15 17  1  0
 17 18  1  0
 18 19  2  0
 18 20  1  0
 20 22  1  0
 22 23  1  0
 22 24  1  0
 23 24  1  0
  1 25  1  0
  2 26  1  0
  6 27  1  0
 10 28  1  0
 12 29  1  0
 13 30  1  0
 16 31  1  0
 17 32  1  0
 20 33  1  0
 20 34  1  0
 22 35  1  0
 23 36  1  0
 23 37  1  0
 24 38  1  0
 24 39  1  0
M  END
>  <r_user_dG.exp>  (1) 
-9.5600000000000005

>  <atom.dprop.PartialCharge>  (1) 
-0.09594871794871794 -0.12894871794871793 0.051451282051282063 -0.14454871794871793 0.051451282051282063 -0.12894871794871793 -0.05984871794871794 0.691751282051282 -0.54504871794871801
-0.46404871794871794 0.12965128205128207 -0.30124871794871794 0.44325128205128206 -0.68394871794871803 0.56125128205128205 -0.34924871794871792 -0.567348717948718 0.67115128205128205
-0.54604871794871801 -0.13434871794871792 -0.05984871794871794 -0.13464871794871791 -0.13334871794871792 -0.13334871794871792 0.14905128205128207 0.15755128205128208 0.15755128205128208
0.32455128205128209 0.18305128205128207 0.03015128205128206 0.13705128205128209 0.32355128205128209 0.079751282051282055 0.079751282051282055 0.093751282051282067 0.073751282051282063
0.073751282051282063 0.073751282051282063 0.073751282051282063

$$$$
