ejm_44
     RDKit          3D

 41 42  0  0  0  0  0  0  0  0999 V2000
    0.5262   -1.6430   -6.7261 C   0  0  0  0  0  0  0  0  0  0  0  0
    0.0451   -1.9892   -7.9853 C   0  0  0  0  0  0  0  0  0  0  0  0
   -1.3055   -2.2666   -8.1676 C   0  0  0  0  0  0  0  0  0  0  0  0
   -2.1928   -2.2089   -7.0775 C   0  0  0  0  0  0  0  0  0  0  0  0
   -1.6976   -1.8456   -5.8099 C   0  0  0  0  0  0  0  0  0  0  0  0
   -0.3453   -1.5727   -5.6478 C   0  0  0  0  0  0  0  0  0  0  0  0
   -2.7749   -1.7392   -4.4473 Cl  0  0  0  0  0  0  0  0  0  0  0  0
   -3.6348   -2.5183   -7.2152 C   0  0  0  0  0  0  0  0  0  0  0  0
   -4.0433   -3.5978   -6.8206 O   0  0  0  0  0  0  0  0  0  0  0  0
   -4.4425   -1.5733   -7.7344 N   0  0  0  0  0  0  0  0  0  0  0  0
   -5.8304   -1.5975   -7.9073 C   0  0  0  0  0  0  0  0  0  0  0  0
   -6.7185   -2.5243   -7.3268 C   0  0  0  0  0  0  0  0  0  0  0  0
   -8.0875   -2.3528   -7.5087 C   0  0  0  0  0  0  0  0  0  0  0  0
   -8.5615   -1.3381   -8.2262 N   0  0  0  0  0  0  0  0  0  0  0  0
   -7.7595   -0.4425   -8.8005 C   0  0  0  0  0  0  0  0  0  0  0  0
   -6.3788   -0.5287   -8.6082 C   0  0  0  0  0  0  0  0  0  0  0  0
   -8.3233    0.6365   -9.4907 N   0  0  0  0  0  0  0  0  0  0  0  0
   -7.7484    1.3585  -10.4886 C   0  0  0  0  0  0  0  0  0  0  0  0
   -6.6316    1.1242  -10.9205 O   0  0  0  0  0  0  0  0  0  0  0  0
   -8.5595    2.5050  -11.0403 C   0  0  0  0  0  0  0  0  0  0  0  0
   -1.8825   -2.6570   -9.7515 Cl  0  0  0  0  0  0  0  0  0  0  0  0
  -10.0174    2.1927  -11.2048 C   0  0  0  0  0  0  0  0  0  0  0  0
   -7.9892    2.9276  -12.3616 C   0  0  0  0  0  0  0  0  0  0  0  0
   -8.4045    3.6995  -10.1462 C   0  0  0  0  0  0  0  0  0  0  0  0
    1.5953   -1.4254   -6.5855 H   0  0  0  0  0  0  0  0  0  0  0  0
    0.7358   -2.0436   -8.8397 H   0  0  0  0  0  0  0  0  0  0  0  0
    0.0391   -1.2980   -4.6545 H   0  0  0  0  0  0  0  0  0  0  0  0
   -3.9721   -0.7123   -8.0480 H   0  0  0  0  0  0  0  0  0  0  0  0
   -6.3355   -3.3711   -6.7384 H   0  0  0  0  0  0  0  0  0  0  0  0
   -8.7883   -3.0673   -7.0521 H   0  0  0  0  0  0  0  0  0  0  0  0
   -5.7208    0.2539   -9.0138 H   0  0  0  0  0  0  0  0  0  0  0  0
   -9.2757    0.9131   -9.2128 H   0  0  0  0  0  0  0  0  0  0  0  0
  -10.4850    2.0925  -10.2142 H   0  0  0  0  0  0  0  0  0  0  0  0
  -10.5063    3.0065  -11.7604 H   0  0  0  0  0  0  0  0  0  0  0  0
  -10.1300    1.2501  -11.7604 H   0  0  0  0  0  0  0  0  0  0  0  0
   -7.1157    3.5748  -12.1938 H   0  0  0  0  0  0  0  0  0  0  0  0
   -7.6821    2.0373  -12.9300 H   0  0  0  0  0  0  0  0  0  0  0  0
   -8.7515    3.4806  -12.9300 H   0  0  0  0  0  0  0  0  0  0  0  0
   -8.4462    3.3785   -9.0949 H   0  0  0  0  0  0  0  0  0  0  0  0
   -7.4362    4.1824  -10.3440 H   0  0  0  0  0  0  0  0  0  0  0  0
   -9.2175    4.4135  -10.3440 H   0  0  0  0  0  0  0  0  0  0  0  0
  1  2  2  0
  1  6  1  0
  2  3  1  0
  3  4  2  0
  3 21  1  0
  4  5  1  0
  4  8  1  0
  5  6  2  0
  5  7  1  0
  8  9  2  0
  8 10  1  0
 10 11  1  0
 11 12  2  0
 11 16  1  0
 12 13  1  0
 13 14  2  0
 14 15  1  0
 15 16  2  0
 15 17  1  0
 17 18  1  0
 18 19  2  0
 18 20  1  0
 20 22  1  0
 20 23  1  0
 20 24  1  0
  1 25  1  0
  2 26  1  0
  6 27  1  0
 10 28  1  0
 12 29  1  0
 13 30  1  0
 16 31  1  0
 17 32  1  0
 22 33  1  0
 22 34  1  0
 22 35  1  0
 23 36  1  0
 23 37  1  0
 23 38  1  0
 24 39  1  0
 24 40  1  0
 24 41  1  0
M  END
>  <r_user_dG.exp>  (1) 
-7.4199999999999999

>  <atom.dprop.PartialCharge>  (1) 
-0.096975585365853684 -0.12997558536585369 0.050924414634146327 -0.14157558536585368 0.050924414634146327 -0.12997558536585369 -0.059375585365853675 0.68872441463414635
-0.53607558536585365 -0.46507558536585369 0.12462441463414632 -0.33127558536585366 0.4432244146341463 -0.73497558536585361 0.54622441463414639 -0.27327558536585367 -0.55037558536585363
0.6661244146341464 -0.57307558536585368 -0.11697558536585369 -0.059375585365853675 -0.089075585365853679 -0.089075585365853679 -0.089075585365853679 0.14702441463414631 0.15652441463414632
0.15652441463414632 0.32552441463414633 0.14202441463414631 0.021124414634146323 0.20502441463414631 0.32852441463414633 0.045835414634146324 0.045835414634146324 0.045835414634146324
0.045835414634146324 0.045835414634146324 0.045835414634146324 0.045835414634146324 0.045835414634146324 0.045835414634146324

$$$$
