@<TRIPOS>MOLECULE
MOL
   41    42     1     0     0
SMALL
No Charge or Current Charge


@<TRIPOS>ATOM
      1 C1           0.5260    -1.6430    -6.7260 ca         1 MOL       0.000000
      2 C2           0.0450    -1.9890    -7.9850 ca         1 MOL       0.000000
      3 C3          -1.3060    -2.2670    -8.1680 ca         1 MOL       0.000000
      4 C4          -2.1930    -2.2090    -7.0770 ca         1 MOL       0.000000
      5 C5          -1.6980    -1.8460    -5.8100 ca         1 MOL       0.000000
      6 C6          -0.3450    -1.5730    -5.6480 ca         1 MOL       0.000000
      7 Cl1         -2.7750    -1.7390    -4.4470 cl         1 MOL       0.000000
      8 C7          -3.6350    -2.5180    -7.2150 c          1 MOL       0.000000
      9 O1          -4.0430    -3.5980    -6.8210 o          1 MOL       0.000000
     10 N1          -4.4420    -1.5730    -7.7340 ns         1 MOL       0.000000
     11 C8          -5.8300    -1.5970    -7.9070 ca         1 MOL       0.000000
     12 C9          -6.7180    -2.5240    -7.3270 ca         1 MOL       0.000000
     13 C10         -8.0880    -2.3530    -7.5090 ca         1 MOL       0.000000
     14 N2          -8.5620    -1.3380    -8.2260 nb         1 MOL       0.000000
     15 C11         -7.7600    -0.4430    -8.8000 ca         1 MOL       0.000000
     16 C12         -6.3790    -0.5290    -8.6080 ca         1 MOL       0.000000
     17 N3          -8.3230     0.6360    -9.4910 ns         1 MOL       0.000000
     18 C13         -7.7480     1.3590   -10.4890 c          1 MOL       0.000000
     19 O2          -6.6320     1.1240   -10.9210 o          1 MOL       0.000000
     20 C14         -8.5590     2.5050   -11.0400 c3         1 MOL       0.000000
     21 Cl2         -1.8830    -2.6570    -9.7520 cl         1 MOL       0.000000
     22 C15        -10.0170     2.1930   -11.2050 c3         1 MOL       0.000000
     23 C16         -7.9890     2.9280   -12.3620 c3         1 MOL       0.000000
     24 C17         -8.4050     3.7000   -10.1460 c3         1 MOL       0.000000
     25 H1           1.5950    -1.4250    -6.5850 ha         1 MOL       0.000000
     26 H2           0.7360    -2.0440    -8.8400 ha         1 MOL       0.000000
     27 H3           0.0390    -1.2980    -4.6540 ha         1 MOL       0.000000
     28 H4          -3.9720    -0.7120    -8.0480 hn         1 MOL       0.000000
     29 H5          -6.3350    -3.3710    -6.7380 ha         1 MOL       0.000000
     30 H6          -8.7880    -3.0670    -7.0520 h4         1 MOL       0.000000
     31 H7          -5.7210     0.2540    -9.0140 ha         1 MOL       0.000000
     32 H8          -9.2760     0.9130    -9.2130 hn         1 MOL       0.000000
     33 H9         -10.4850     2.0920   -10.2140 hc         1 MOL       0.000000
     34 H10        -10.5060     3.0060   -11.7600 hc         1 MOL       0.000000
     35 H11        -10.1300     1.2500   -11.7600 hc         1 MOL       0.000000
     36 H12         -7.1160     3.5750   -12.1940 hc         1 MOL       0.000000
     37 H13         -7.6820     2.0370   -12.9300 hc         1 MOL       0.000000
     38 H14         -8.7520     3.4810   -12.9300 hc         1 MOL       0.000000
     39 H15         -8.4460     3.3780    -9.0950 hc         1 MOL       0.000000
     40 H16         -7.4360     4.1820   -10.3440 hc         1 MOL       0.000000
     41 H17         -9.2170     4.4130   -10.3440 hc         1 MOL       0.000000
@<TRIPOS>BOND
     1     1     2 ar  
     2     1     6 ar  
     3     2     3 ar  
     4     3     4 ar  
     5     3    21 1   
     6     4     5 ar  
     7     4     8 1   
     8     5     6 ar  
     9     5     7 1   
    10     8     9 2   
    11     8    10 1   
    12    10    11 1   
    13    11    12 ar  
    14    11    16 ar  
    15    12    13 ar  
    16    13    14 ar  
    17    14    15 ar  
    18    15    16 ar  
    19    15    17 1   
    20    17    18 1   
    21    18    19 2   
    22    18    20 1   
    23    20    22 1   
    24    20    23 1   
    25    20    24 1   
    26     1    25 1   
    27     2    26 1   
    28     6    27 1   
    29    10    28 1   
    30    12    29 1   
    31    13    30 1   
    32    16    31 1   
    33    17    32 1   
    34    22    33 1   
    35    22    34 1   
    36    22    35 1   
    37    23    36 1   
    38    23    37 1   
    39    23    38 1   
    40    24    39 1   
    41    24    40 1   
    42    24    41 1   
@<TRIPOS>SUBSTRUCTURE
     1 MOL         1 TEMP              0 ****  ****    0 ROOT
