ejm_48
     RDKit          3D

 42 44  0  0  0  0  0  0  0  0999 V2000
    0.5262   -1.6430   -6.7261 C   0  0  0  0  0  0  0  0  0  0  0  0
    0.0451   -1.9892   -7.9853 C   0  0  0  0  0  0  0  0  0  0  0  0
   -1.3055   -2.2666   -8.1676 C   0  0  0  0  0  0  0  0  0  0  0  0
   -2.1928   -2.2089   -7.0775 C   0  0  0  0  0  0  0  0  0  0  0  0
   -1.6976   -1.8456   -5.8099 C   0  0  0  0  0  0  0  0  0  0  0  0
   -0.3453   -1.5727   -5.6478 C   0  0  0  0  0  0  0  0  0  0  0  0
   -2.7749   -1.7392   -4.4473 Cl  0  0  0  0  0  0  0  0  0  0  0  0
   -3.6348   -2.5183   -7.2152 C   0  0  0  0  0  0  0  0  0  0  0  0
   -4.0433   -3.5978   -6.8206 O   0  0  0  0  0  0  0  0  0  0  0  0
   -4.4425   -1.5733   -7.7344 N   0  0  0  0  0  0  0  0  0  0  0  0
   -5.8304   -1.5975   -7.9073 C   0  0  0  0  0  0  0  0  0  0  0  0
   -6.7185   -2.5243   -7.3268 C   0  0  0  0  0  0  0  0  0  0  0  0
   -8.0875   -2.3528   -7.5087 C   0  0  0  0  0  0  0  0  0  0  0  0
   -8.5615   -1.3381   -8.2262 N   0  0  0  0  0  0  0  0  0  0  0  0
   -7.7595   -0.4425   -8.8005 C   0  0  0  0  0  0  0  0  0  0  0  0
   -6.3788   -0.5287   -8.6082 C   0  0  0  0  0  0  0  0  0  0  0  0
   -8.3233    0.6365   -9.4907 N   0  0  0  0  0  0  0  0  0  0  0  0
   -7.7484    1.3585  -10.4886 C   0  0  0  0  0  0  0  0  0  0  0  0
   -6.6316    1.1242  -10.9205 O   0  0  0  0  0  0  0  0  0  0  0  0
   -1.8825   -2.6570   -9.7515 Cl  0  0  0  0  0  0  0  0  0  0  0  0
   -8.5295    2.5198  -11.1006 C   0  0  0  0  0  0  0  0  0  0  0  0
   -7.5738    3.6972  -11.3358 C   0  0  0  0  0  0  0  0  0  0  0  0
   -7.0820    3.4902  -12.7698 C   0  0  0  0  0  0  0  0  0  0  0  0
   -8.3542    3.0435  -13.4937 C   0  0  0  0  0  0  0  0  0  0  0  0
   -9.0455    2.1089  -12.4915 C   0  0  0  0  0  0  0  0  0  0  0  0
    1.5953   -1.4254   -6.5855 H   0  0  0  0  0  0  0  0  0  0  0  0
    0.7358   -2.0436   -8.8397 H   0  0  0  0  0  0  0  0  0  0  0  0
    0.0391   -1.2980   -4.6545 H   0  0  0  0  0  0  0  0  0  0  0  0
   -3.9721   -0.7123   -8.0480 H   0  0  0  0  0  0  0  0  0  0  0  0
   -6.3355   -3.3711   -6.7384 H   0  0  0  0  0  0  0  0  0  0  0  0
   -8.7883   -3.0673   -7.0521 H   0  0  0  0  0  0  0  0  0  0  0  0
   -5.7208    0.2539   -9.0138 H   0  0  0  0  0  0  0  0  0  0  0  0
   -9.2757    0.9131   -9.2128 H   0  0  0  0  0  0  0  0  0  0  0  0
   -9.3539    2.7880  -10.4235 H   0  0  0  0  0  0  0  0  0  0  0  0
   -8.1030    4.6566  -11.2381 H   0  0  0  0  0  0  0  0  0  0  0  0
   -6.7518    3.7291  -10.6056 H   0  0  0  0  0  0  0  0  0  0  0  0
   -6.6903    4.4261  -13.1949 H   0  0  0  0  0  0  0  0  0  0  0  0
   -6.2549    2.7695  -12.8505 H   0  0  0  0  0  0  0  0  0  0  0  0
   -8.9940    3.9071  -13.7280 H   0  0  0  0  0  0  0  0  0  0  0  0
   -8.1430    2.5510  -14.4544 H   0  0  0  0  0  0  0  0  0  0  0  0
   -8.7832    1.0616  -12.7022 H   0  0  0  0  0  0  0  0  0  0  0  0
  -10.1407    2.1904  -12.5546 H   0  0  0  0  0  0  0  0  0  0  0  0
  1  2  2  0
  1  6  1  0
  2  3  1  0
  3  4  2  0
  3 20  1  0
  4  5  1  0
  4  8  1  0
  5  6  2  0
  5  7  1  0
  8  9  2  0
  8 10  1  0
 10 11  1  0
 11 12  2  0
 11 16  1  0
 12 13  1  0
 13 14  2  0
 14 15  1  0
 15 16  2  0
 15 17  1  0
 17 18  1  0
 18 19  2  0
 18 21  1  0
 21 22  1  0
 21 25  1  0
 22 23  1  0
 23 24  1  0
 24 25  1  0
  1 26  1  0
  2 27  1  0
  6 28  1  0
 10 29  1  0
 12 30  1  0
 13 31  1  0
 16 32  1  0
 17 33  1  0
 21 34  1  0
 22 35  1  0
 22 36  1  0
 23 37  1  0
 23 38  1  0
 24 39  1  0
 24 40  1  0
 25 41  1  0
 25 42  1  0
M  END
>  <r_user_dG.exp>  (1) 
-9

>  <atom.dprop.PartialCharge>  (1) 
-0.095976190476190493 -0.12897619047619049 0.051923809523809518 -0.1435761904761905 0.051923809523809518 -0.12897619047619049 -0.059876190476190486 0.69172380952380952 -0.5500761904761905
-0.46007619047619047 0.1266238095238095 -0.30327619047619048 0.44422380952380952 -0.73697619047619045 0.54922380952380956 -0.31927619047619044 -0.55137619047619046 0.67412380952380957
-0.59107619047619042 -0.059876190476190486 -0.13867619047619048 -0.076376190476190486 -0.079376190476190489 -0.079376190476190489 -0.076376190476190486 0.1480238095238095
0.15702380952380951 0.15702380952380951 0.33052380952380955 0.1820238095238095 0.025123809523809514 0.1780238095238095 0.33152380952380955 0.074723809523809512 0.055973809523809516
0.055973809523809516 0.045473809523809514 0.045473809523809514 0.045473809523809514 0.045473809523809514 0.055973809523809516 0.055973809523809516

$$$$
