ejm_47
     RDKit          3D

 39 41  0  0  0  0  0  0  0  0999 V2000
    0.5262   -1.6430   -6.7261 C   0  0  0  0  0  0  0  0  0  0  0  0
    0.0451   -1.9892   -7.9853 C   0  0  0  0  0  0  0  0  0  0  0  0
   -1.3055   -2.2666   -8.1676 C   0  0  0  0  0  0  0  0  0  0  0  0
   -2.1928   -2.2089   -7.0775 C   0  0  0  0  0  0  0  0  0  0  0  0
   -1.6976   -1.8456   -5.8099 C   0  0  0  0  0  0  0  0  0  0  0  0
   -0.3453   -1.5727   -5.6478 C   0  0  0  0  0  0  0  0  0  0  0  0
   -2.7749   -1.7392   -4.4473 Cl  0  0  0  0  0  0  0  0  0  0  0  0
   -3.6348   -2.5183   -7.2152 C   0  0  0  0  0  0  0  0  0  0  0  0
   -4.0433   -3.5978   -6.8206 O   0  0  0  0  0  0  0  0  0  0  0  0
   -4.4425   -1.5733   -7.7344 N   0  0  0  0  0  0  0  0  0  0  0  0
   -5.8304   -1.5975   -7.9073 C   0  0  0  0  0  0  0  0  0  0  0  0
   -6.7185   -2.5243   -7.3268 C   0  0  0  0  0  0  0  0  0  0  0  0
   -8.0875   -2.3528   -7.5087 C   0  0  0  0  0  0  0  0  0  0  0  0
   -8.5615   -1.3381   -8.2262 N   0  0  0  0  0  0  0  0  0  0  0  0
   -7.7595   -0.4425   -8.8005 C   0  0  0  0  0  0  0  0  0  0  0  0
   -6.3788   -0.5287   -8.6082 C   0  0  0  0  0  0  0  0  0  0  0  0
   -8.3233    0.6365   -9.4907 N   0  0  0  0  0  0  0  0  0  0  0  0
   -7.7484    1.3585  -10.4886 C   0  0  0  0  0  0  0  0  0  0  0  0
   -6.6316    1.1242  -10.9205 O   0  0  0  0  0  0  0  0  0  0  0  0
   -1.8825   -2.6570   -9.7515 Cl  0  0  0  0  0  0  0  0  0  0  0  0
   -8.5437    2.5055  -11.0617 C   0  0  0  0  0  0  0  0  0  0  0  0
   -7.6489    3.6552  -11.5386 C   0  0  0  0  0  0  0  0  0  0  0  0
   -7.6840    3.0397  -12.9421 C   0  0  0  0  0  0  0  0  0  0  0  0
   -8.9405    2.2682  -12.5231 C   0  0  0  0  0  0  0  0  0  0  0  0
    1.5953   -1.4254   -6.5855 H   0  0  0  0  0  0  0  0  0  0  0  0
    0.7358   -2.0436   -8.8397 H   0  0  0  0  0  0  0  0  0  0  0  0
    0.0391   -1.2980   -4.6545 H   0  0  0  0  0  0  0  0  0  0  0  0
   -3.9721   -0.7123   -8.0480 H   0  0  0  0  0  0  0  0  0  0  0  0
   -6.3355   -3.3711   -6.7384 H   0  0  0  0  0  0  0  0  0  0  0  0
   -8.7883   -3.0673   -7.0521 H   0  0  0  0  0  0  0  0  0  0  0  0
   -5.7208    0.2539   -9.0138 H   0  0  0  0  0  0  0  0  0  0  0  0
   -9.2757    0.9131   -9.2128 H   0  0  0  0  0  0  0  0  0  0  0  0
   -9.2999    2.6520  -10.2764 H   0  0  0  0  0  0  0  0  0  0  0  0
   -8.1097    4.6514  -11.4663 H   0  0  0  0  0  0  0  0  0  0  0  0
   -6.6963    3.8836  -11.0382 H   0  0  0  0  0  0  0  0  0  0  0  0
   -7.8440    3.7647  -13.7537 H   0  0  0  0  0  0  0  0  0  0  0  0
   -6.8086    2.5219  -13.3612 H   0  0  0  0  0  0  0  0  0  0  0  0
   -8.9487    1.2111  -12.8271 H   0  0  0  0  0  0  0  0  0  0  0  0
   -9.9356    2.5496  -12.8981 H   0  0  0  0  0  0  0  0  0  0  0  0
  1  2  2  0
  1  6  1  0
  2  3  1  0
  3  4  2  0
  3 20  1  0
  4  5  1  0
  4  8  1  0
  5  6  2  0
  5  7  1  0
  8  9  2  0
  8 10  1  0
 10 11  1  0
 11 12  2  0
 11 16  1  0
 12 13  1  0
 13 14  2  0
 14 15  1  0
 15 16  2  0
 15 17  1  0
 17 18  1  0
 18 19  2  0
 18 21  1  0
 21 22  1  0
 21 24  1  0
 22 23  1  0
 23 24  1  0
  1 25  1  0
  2 26  1  0
  6 27  1  0
 10 28  1  0
 12 29  1  0
 13 30  1  0
 16 31  1  0
 17 32  1  0
 21 33  1  0
 22 34  1  0
 22 35  1  0
 23 36  1  0
 23 37  1  0
 24 38  1  0
 24 39  1  0
M  END
>  <r_user_dG.exp>  (1) 
-9.6999999999999993

>  <atom.dprop.PartialCharge>  (1) 
-0.095923076923076916 -0.12892307692307692 0.052476923076923081 -0.14352307692307692 0.052476923076923081 -0.12892307692307692 -0.060323076923076924 0.69177692307692307
-0.55002307692307695 -0.46002307692307692 0.12767692307692308 -0.30522307692307693 0.44527692307692307 -0.7389230769230769 0.55227692307692311 -0.32422307692307689 -0.54932307692307691
0.68217692307692313 -0.59302307692307688 -0.060323076923076924 -0.16362307692307693 -0.08732307692307692 -0.10032307692307693 -0.08732307692307692 0.14807692307692308 0.15707692307692309
0.15707692307692309 0.3305769230769231 0.18307692307692308 0.025176923076923079 0.18107692307692308 0.33457692307692311 0.097776923076923067 0.061526923076923076 0.061526923076923076
0.056276923076923079 0.056276923076923079 0.061526923076923076 0.061526923076923076

$$$$
