jmc_23
     RDKit          3D

 36 38  0  0  0  0  0  0  0  0999 V2000
    0.5262   -1.6430   -6.7261 C   0  0  0  0  0  0  0  0  0  0  0  0
    0.0451   -1.9892   -7.9853 C   0  0  0  0  0  0  0  0  0  0  0  0
   -1.3055   -2.2666   -8.1676 C   0  0  0  0  0  0  0  0  0  0  0  0
   -2.1928   -2.2089   -7.0775 C   0  0  0  0  0  0  0  0  0  0  0  0
   -1.6976   -1.8456   -5.8099 C   0  0  0  0  0  0  0  0  0  0  0  0
   -0.3453   -1.5727   -5.6478 C   0  0  0  0  0  0  0  0  0  0  0  0
   -2.7749   -1.7392   -4.4473 Cl  0  0  0  0  0  0  0  0  0  0  0  0
   -3.6348   -2.5183   -7.2152 C   0  0  0  0  0  0  0  0  0  0  0  0
   -4.0433   -3.5978   -6.8206 O   0  0  0  0  0  0  0  0  0  0  0  0
   -4.4425   -1.5733   -7.7344 N   0  0  0  0  0  0  0  0  0  0  0  0
   -5.8304   -1.5975   -7.9073 C   0  0  0  0  0  0  0  0  0  0  0  0
   -6.7185   -2.5243   -7.3268 C   0  0  0  0  0  0  0  0  0  0  0  0
   -8.0875   -2.3528   -7.5087 C   0  0  0  0  0  0  0  0  0  0  0  0
   -8.5615   -1.3381   -8.2262 N   0  0  0  0  0  0  0  0  0  0  0  0
   -7.7595   -0.4425   -8.8005 C   0  0  0  0  0  0  0  0  0  0  0  0
   -6.3788   -0.5287   -8.6082 C   0  0  0  0  0  0  0  0  0  0  0  0
   -8.3233    0.6365   -9.4907 N   0  0  0  0  0  0  0  0  0  0  0  0
   -7.7484    1.3585  -10.4886 C   0  0  0  0  0  0  0  0  0  0  0  0
   -6.6316    1.1242  -10.9205 O   0  0  0  0  0  0  0  0  0  0  0  0
   -8.5595    2.5050  -11.0403 C   0  0  1  0  0  0  0  0  0  0  0  0
   -7.8587    3.6034  -11.8463 C   0  0  0  0  0  0  0  0  0  0  0  0
   -8.7739    2.5981  -12.5476 C   0  0  1  0  0  0  0  0  0  0  0  0
   -8.1730    1.6154  -13.3353 F   0  0  0  0  0  0  0  0  0  0  0  0
   -1.8825   -2.6570   -9.7515 Cl  0  0  0  0  0  0  0  0  0  0  0  0
    1.5953   -1.4254   -6.5855 H   0  0  0  0  0  0  0  0  0  0  0  0
    0.7358   -2.0436   -8.8397 H   0  0  0  0  0  0  0  0  0  0  0  0
    0.0391   -1.2980   -4.6545 H   0  0  0  0  0  0  0  0  0  0  0  0
   -3.9721   -0.7123   -8.0480 H   0  0  0  0  0  0  0  0  0  0  0  0
   -6.3355   -3.3711   -6.7384 H   0  0  0  0  0  0  0  0  0  0  0  0
   -8.7883   -3.0673   -7.0521 H   0  0  0  0  0  0  0  0  0  0  0  0
   -5.7208    0.2539   -9.0138 H   0  0  0  0  0  0  0  0  0  0  0  0
   -9.2757    0.9131   -9.2128 H   0  0  0  0  0  0  0  0  0  0  0  0
   -9.2160    2.4911  -10.1578 H   0  0  0  0  0  0  0  0  0  0  0  0
   -8.1732    4.6519  -11.7377 H   0  0  0  0  0  0  0  0  0  0  0  0
   -6.8164    3.9304  -11.9756 H   0  0  0  0  0  0  0  0  0  0  0  0
   -9.6497    2.6790  -13.2082 H   0  0  0  0  0  0  0  0  0  0  0  0
  1  2  2  0
  1  6  1  0
  2  3  1  0
  3  4  2  0
  3 24  1  0
  4  5  1  0
  4  8  1  0
  5  6  2  0
  5  7  1  0
  8  9  2  0
  8 10  1  0
 10 11  1  0
 11 12  2  0
 11 16  1  0
 12 13  1  0
 13 14  2  0
 14 15  1  0
 15 16  2  0
 15 17  1  0
 17 18  1  0
 18 19  2  0
 18 20  1  0
 20 21  1  0
 20 22  1  0
 21 22  1  0
 22 23  1  0
  1 25  1  0
  2 26  1  0
  6 27  1  0
 10 28  1  0
 12 29  1  0
 13 30  1  0
 16 31  1  0
 17 32  1  0
 20 33  1  1
 21 34  1  0
 21 35  1  0
 22 36  1  1
M  END
>  <r_user_dG.exp>  (1) 
-11.699999999999999

>  <atom.dprop.PartialCharge>  (1) 
-0.095972222222222223 -0.12897222222222221 0.052427777777777788 -0.14357222222222221 0.052427777777777788 -0.12897222222222221 -0.060372222222222216 0.69172777777777772 -0.5500722222222223
-0.46107222222222222 0.12562777777777778 -0.30127222222222222 0.44322777777777778 -0.72997222222222224 0.54722777777777776 -0.31627222222222223 -0.54337222222222226 0.70212777777777768
-0.58907222222222222 -0.2336722222222222 -0.1353722222222222 0.13162777777777779 -0.20327222222222222 -0.060372222222222216 0.14802777777777779 0.15702777777777779 0.15702777777777779
0.33052777777777781 0.18302777777777779 0.026127777777777784 0.17702777777777778 0.34052777777777782 0.12372777777777778 0.094227777777777785 0.094227777777777785 0.10372777777777778

$$$$
