ejm_42
     RDKit          3D

 35 36  0  0  0  0  0  0  0  0999 V2000
    0.5262   -1.6430   -6.7261 C   0  0  0  0  0  0  0  0  0  0  0  0
    0.0451   -1.9892   -7.9853 C   0  0  0  0  0  0  0  0  0  0  0  0
   -1.3055   -2.2666   -8.1676 C   0  0  0  0  0  0  0  0  0  0  0  0
   -2.1928   -2.2089   -7.0775 C   0  0  0  0  0  0  0  0  0  0  0  0
   -1.6976   -1.8456   -5.8099 C   0  0  0  0  0  0  0  0  0  0  0  0
   -0.3453   -1.5727   -5.6478 C   0  0  0  0  0  0  0  0  0  0  0  0
   -2.7749   -1.7392   -4.4473 Cl  0  0  0  0  0  0  0  0  0  0  0  0
   -3.6348   -2.5183   -7.2152 C   0  0  0  0  0  0  0  0  0  0  0  0
   -4.0433   -3.5978   -6.8206 O   0  0  0  0  0  0  0  0  0  0  0  0
   -4.4425   -1.5733   -7.7344 N   0  0  0  0  0  0  0  0  0  0  0  0
   -5.8304   -1.5975   -7.9073 C   0  0  0  0  0  0  0  0  0  0  0  0
   -6.7185   -2.5243   -7.3268 C   0  0  0  0  0  0  0  0  0  0  0  0
   -8.0875   -2.3528   -7.5087 C   0  0  0  0  0  0  0  0  0  0  0  0
   -8.5615   -1.3381   -8.2262 N   0  0  0  0  0  0  0  0  0  0  0  0
   -7.7595   -0.4425   -8.8005 C   0  0  0  0  0  0  0  0  0  0  0  0
   -6.3788   -0.5287   -8.6082 C   0  0  0  0  0  0  0  0  0  0  0  0
   -8.3233    0.6365   -9.4907 N   0  0  0  0  0  0  0  0  0  0  0  0
   -7.7484    1.3585  -10.4886 C   0  0  0  0  0  0  0  0  0  0  0  0
   -6.6316    1.1242  -10.9205 O   0  0  0  0  0  0  0  0  0  0  0  0
   -8.5595    2.5050  -11.0403 C   0  0  0  0  0  0  0  0  0  0  0  0
   -1.8825   -2.6570   -9.7515 Cl  0  0  0  0  0  0  0  0  0  0  0  0
   -7.9892    2.9276  -12.3616 C   0  0  0  0  0  0  0  0  0  0  0  0
    1.5953   -1.4254   -6.5855 H   0  0  0  0  0  0  0  0  0  0  0  0
    0.7358   -2.0436   -8.8397 H   0  0  0  0  0  0  0  0  0  0  0  0
    0.0391   -1.2980   -4.6545 H   0  0  0  0  0  0  0  0  0  0  0  0
   -3.9721   -0.7123   -8.0480 H   0  0  0  0  0  0  0  0  0  0  0  0
   -6.3355   -3.3711   -6.7384 H   0  0  0  0  0  0  0  0  0  0  0  0
   -8.7883   -3.0673   -7.0521 H   0  0  0  0  0  0  0  0  0  0  0  0
   -5.7208    0.2539   -9.0138 H   0  0  0  0  0  0  0  0  0  0  0  0
   -9.2757    0.9131   -9.2128 H   0  0  0  0  0  0  0  0  0  0  0  0
   -9.6029    2.1844  -11.1765 H   0  0  0  0  0  0  0  0  0  0  0  0
   -8.5257    3.3508  -10.3378 H   0  0  0  0  0  0  0  0  0  0  0  0
   -7.1157    3.5748  -12.1938 H   0  0  0  0  0  0  0  0  0  0  0  0
   -7.6821    2.0373  -12.9300 H   0  0  0  0  0  0  0  0  0  0  0  0
   -8.7515    3.4806  -12.9300 H   0  0  0  0  0  0  0  0  0  0  0  0
  1  2  2  0
  1  6  1  0
  2  3  1  0
  3  4  2  0
  3 21  1  0
  4  5  1  0
  4  8  1  0
  5  6  2  0
  5  7  1  0
  8  9  2  0
  8 10  1  0
 10 11  1  0
 11 12  2  0
 11 16  1  0
 12 13  1  0
 13 14  2  0
 14 15  1  0
 15 16  2  0
 15 17  1  0
 17 18  1  0
 18 19  2  0
 18 20  1  0
 20 22  1  0
  1 23  1  0
  2 24  1  0
  6 25  1  0
 10 26  1  0
 12 27  1  0
 13 28  1  0
 16 29  1  0
 17 30  1  0
 20 31  1  0
 20 32  1  0
 22 33  1  0
 22 34  1  0
 22 35  1  0
M  END
>  <r_user_dG.exp>  (1) 
-9.7799999999999994

>  <atom.dprop.PartialCharge>  (1) 
-0.095999971428571418 -0.12899997142857142 0.051400028571428578 -0.14459997142857142 0.051400028571428578 -0.12899997142857142 -0.059899971428571425 0.69170002857142854
-0.54509997142857147 -0.46409997142857146 0.13160002857142858 -0.30129997142857146 0.44420002857142854 -0.6829999714285715 0.56320002857142859 -0.35229997142857145 -0.57639997142857147
0.66810002857142858 -0.53909997142857147 -0.15439997142857143 -0.059899971428571425 -0.088099971428571414 0.14900002857142858 0.15750002857142859 0.15750002857142859 0.32450002857142857
0.18300002857142858 0.030100028571428579 0.13600002857142859 0.31750002857142856 0.060700028571428574 0.060700028571428574 0.048033028571428577 0.048033028571428577 0.048033028571428577

$$$$
