@<TRIPOS>MOLECULE
MOL
   37    38     1     0     0
SMALL
No Charge or Current Charge


@<TRIPOS>ATOM
      1 C1          -1.9610    21.5500   -27.3300 ca         1 MOL       0.000000
      2 C2          -1.2940    22.4120   -28.1960 ca         1 MOL       0.000000
      3 C3          -1.9550    22.9520   -29.2940 ca         1 MOL       0.000000
      4 C4          -3.3000    22.6220   -29.5430 ca         1 MOL       0.000000
      5 C5          -3.9690    21.7590   -28.6530 ca         1 MOL       0.000000
      6 C6          -3.2920    21.2290   -27.5620 ca         1 MOL       0.000000
      7 Cl1         -5.6400    21.3530   -28.9190 cl         1 MOL       0.000000
      8 C7          -4.0400    23.1520   -30.7110 c          1 MOL       0.000000
      9 O1          -4.2260    22.4200   -31.6690 o          1 MOL       0.000000
     10 N1          -4.5130    24.4120   -30.6480 ns         1 MOL       0.000000
     11 C8          -5.2870    25.1110   -31.5800 ca         1 MOL       0.000000
     12 C9          -5.9620    24.5480   -32.6810 ca         1 MOL       0.000000
     13 C10         -6.7810    25.3610   -33.4590 ca         1 MOL       0.000000
     14 N2          -6.9230    26.6540   -33.1830 nb         1 MOL       0.000000
     15 C11         -6.2980    27.2320   -32.1580 ca         1 MOL       0.000000
     16 C12         -5.5070    26.4570   -31.3070 ca         1 MOL       0.000000
     17 N3          -6.5390    28.5830   -31.8840 ns         1 MOL       0.000000
     18 C13         -5.7130    29.4450   -31.2330 c          1 MOL       0.000000
     19 O2          -4.6160    29.1220   -30.8100 o          1 MOL       0.000000
     20 Cl2         -1.1120    24.0510   -30.3320 cl         1 MOL       0.000000
     21 H1          -1.4440    21.1320   -26.4790 ha         1 MOL       0.000000
     22 H2          -0.2590    22.6630   -28.0160 ha         1 MOL       0.000000
     23 H3          -3.8110    20.5610   -26.8910 ha         1 MOL       0.000000
     24 H4          -4.3170    24.9850   -29.8390 hn         1 MOL       0.000000
     25 H5          -5.8400    23.4990   -32.9090 ha         1 MOL       0.000000
     26 H6          -7.3120    24.9440   -34.3020 h4         1 MOL       0.000000
     27 H7          -5.0640    26.9090   -30.4310 ha         1 MOL       0.000000
     28 H8          -7.4040    29.0130   -32.1800 hn         1 MOL       0.000000
     29 C14         -5.1870    31.8540   -30.6780 c3         1 MOL       0.000000
     30 H9          -5.5880    32.8580   -30.8200 h1         1 MOL       0.000000
     31 H10         -4.9070    31.7200   -29.6330 h1         1 MOL       0.000000
     32 C15         -3.9780    31.6720   -31.5470 c3         1 MOL       0.000000
     33 N4          -6.1550    30.8250   -31.0240 ns         1 MOL       0.000000
     34 H11         -7.1320    31.0620   -31.1200 hn         1 MOL       0.000000
     35 H12         -3.5770    30.6680   -31.4050 hc         1 MOL       0.000000
     36 H13         -4.2570    31.8070   -32.5920 hc         1 MOL       0.000000
     37 H14         -3.2210    32.4070   -31.2760 hc         1 MOL       0.000000
@<TRIPOS>BOND
     1     1     2 ar  
     2     1     6 ar  
     3     1    21 1   
     4     2     3 ar  
     5     2    22 1   
     6     3     4 ar  
     7     3    20 1   
     8     4     5 ar  
     9     4     8 1   
    10     5     6 ar  
    11     5     7 1   
    12     6    23 1   
    13     8     9 2   
    14     8    10 1   
    15    10    11 1   
    16    10    24 1   
    17    11    12 ar  
    18    11    16 ar  
    19    12    13 ar  
    20    12    25 1   
    21    13    14 ar  
    22    13    26 1   
    23    14    15 ar  
    24    15    16 ar  
    25    15    17 1   
    26    16    27 1   
    27    17    18 1   
    28    17    28 1   
    29    18    19 2   
    30    18    33 1   
    31    29    30 1   
    32    29    31 1   
    33    29    32 1   
    34    29    33 1   
    35    32    35 1   
    36    32    36 1   
    37    32    37 1   
    38    33    34 1   
@<TRIPOS>SUBSTRUCTURE
     1 MOL         1 TEMP              0 ****  ****    0 ROOT
