@<TRIPOS>MOLECULE
MOL
   45    48     1     0     0
SMALL
No Charge or Current Charge


@<TRIPOS>ATOM
      1 C1           1.3900    29.1080     6.7940 ca         1 MOL       0.000000
      2 C2          -1.6910    31.9130     8.0790 cc         1 MOL       0.000000
      3 C3          -0.7440    26.3750     8.8320 c3         1 MOL       0.000000
      4 C4          -1.3140    25.5570     9.9910 c6         1 MOL       0.000000
      5 C5          -1.1210    24.0590     9.6850 c6         1 MOL       0.000000
      6 C6          -1.5820    23.1800    10.8500 c6         1 MOL       0.000000
      7 C7          -0.8550    23.5460    12.1490 c6         1 MOL       0.000000
      8 C8          -1.0780    25.0280    12.4860 c6         1 MOL       0.000000
      9 C9          -0.6320    25.9350    11.3270 c6         1 MOL       0.000000
     10 C10          4.6900    25.7130     5.8380 ca         1 MOL       0.000000
     11 C11          4.6670    25.1400     7.1230 ca         1 MOL       0.000000
     12 C12          3.9500    25.7660     8.1580 ca         1 MOL       0.000000
     13 C13          3.2460    26.9560     7.8980 ca         1 MOL       0.000000
     14 N1           0.6300    28.2310     7.4510 nb         1 MOL       0.000000
     15 C14         -0.4900    28.6250     8.0920 ca         1 MOL       0.000000
     16 O1          -1.1800    27.7320     8.8830 os         1 MOL       0.000000
     17 C15         -0.8660    29.9820     8.0000 ca         1 MOL       0.000000
     18 N2          -1.9250    30.7130     8.5210 nd         1 MOL       0.000000
     19 N3          -0.5540    32.0460     7.3310 na         1 MOL       0.000000
     20 C16         -0.0250    30.7860     7.2610 ca         1 MOL       0.000000
     21 N4           1.1170    30.4050     6.6110 nb         1 MOL       0.000000
     22 N5           2.5830    28.6810     6.3360 nu         1 MOL       0.000000
     23 C17          3.2360    27.5250     6.6030 ca         1 MOL       0.000000
     24 C18          3.9870    26.9070     5.5820 ca         1 MOL       0.000000
     25 H1          -2.3600    32.7600     8.2910 h5         1 MOL       0.000000
     26 H2           0.3540    26.3510     8.8840 h1         1 MOL       0.000000
     27 H3          -1.1020    25.9340     7.8900 h1         1 MOL       0.000000
     28 H4          -2.3860    25.7770    10.0970 hc         1 MOL       0.000000
     29 H5          -1.7050    23.8000     8.7900 hc         1 MOL       0.000000
     30 H6          -0.0490    23.8780     9.5220 hc         1 MOL       0.000000
     31 H7          -2.6640    23.3160    10.9950 hc         1 MOL       0.000000
     32 H8          -1.3490    22.1330    10.6070 hc         1 MOL       0.000000
     33 H9          -1.2440    22.9250    12.9700 hc         1 MOL       0.000000
     34 H10          0.2230    23.3670    12.0180 hc         1 MOL       0.000000
     35 H11         -2.1480    25.1950    12.6810 hc         1 MOL       0.000000
     36 H12         -0.4790    25.2770    13.3740 hc         1 MOL       0.000000
     37 H13          0.4580    25.8450    11.2060 hc         1 MOL       0.000000
     38 H14         -0.9240    26.9660    11.5750 hc         1 MOL       0.000000
     39 H15          5.2580    25.2270     5.0310 ha         1 MOL       0.000000
     40 H16          5.2100    24.2030     7.3180 ha         1 MOL       0.000000
     41 H17          3.9400    25.3270     9.1670 ha         1 MOL       0.000000
     42 H18          2.6960    27.4500     8.7120 ha         1 MOL       0.000000
     43 H19         -0.1770    32.9080     6.9110 hn         1 MOL       0.000000
     44 H20          3.0660    29.3240     5.6920 hn         1 MOL       0.000000
     45 H21          4.0240    27.3600     4.5800 ha         1 MOL       0.000000
@<TRIPOS>BOND
     1     1    14 ar  
     2     1    21 ar  
     3     1    22 1   
     4     2    18 2   
     5     2    19 1   
     6     3     4 1   
     7     3    16 1   
     8     4     5 1   
     9     4     9 1   
    10     5     6 1   
    11     6     7 1   
    12     7     8 1   
    13     8     9 1   
    14    10    11 ar  
    15    10    24 ar  
    16    11    12 ar  
    17    12    13 ar  
    18    13    23 ar  
    19    14    15 ar  
    20    15    16 1   
    21    15    17 ar  
    22    17    18 1   
    23    17    20 ar  
    24    19    20 1   
    25    20    21 ar  
    26    22    23 1   
    27    23    24 ar  
    28     2    25 1   
    29     3    26 1   
    30     3    27 1   
    31     4    28 1   
    32     5    29 1   
    33     5    30 1   
    34     6    31 1   
    35     6    32 1   
    36     7    33 1   
    37     7    34 1   
    38     8    35 1   
    39     8    36 1   
    40     9    37 1   
    41     9    38 1   
    42    10    39 1   
    43    11    40 1   
    44    12    41 1   
    45    13    42 1   
    46    19    43 1   
    47    22    44 1   
    48    24    45 1   
@<TRIPOS>SUBSTRUCTURE
     1 MOL         1 TEMP              0 ****  ****    0 ROOT
