1h1q
     RDKit          3D

 45 48  0  0  0  0  0  0  0  0999 V2000
    1.3900   29.1080    6.7940 C   0  0  0  0  0  0  0  0  0  0  0  0
   -1.6910   31.9130    8.0790 C   0  0  0  0  0  0  0  0  0  0  0  0
   -0.7440   26.3750    8.8320 C   0  0  0  0  0  0  0  0  0  0  0  0
   -1.3140   25.5570    9.9910 C   0  0  0  0  0  0  0  0  0  0  0  0
   -1.1210   24.0590    9.6850 C   0  0  0  0  0  0  0  0  0  0  0  0
   -1.5820   23.1800   10.8500 C   0  0  0  0  0  0  0  0  0  0  0  0
   -0.8550   23.5460   12.1490 C   0  0  0  0  0  0  0  0  0  0  0  0
   -1.0780   25.0280   12.4860 C   0  0  0  0  0  0  0  0  0  0  0  0
   -0.6320   25.9350   11.3270 C   0  0  0  0  0  0  0  0  0  0  0  0
    4.6900   25.7130    5.8380 C   0  0  0  0  0  0  0  0  0  0  0  0
    4.6670   25.1400    7.1230 C   0  0  0  0  0  0  0  0  0  0  0  0
    3.9500   25.7660    8.1580 C   0  0  0  0  0  0  0  0  0  0  0  0
    3.2460   26.9560    7.8980 C   0  0  0  0  0  0  0  0  0  0  0  0
    0.6300   28.2310    7.4510 N   0  0  0  0  0  0  0  0  0  0  0  0
   -0.4900   28.6250    8.0920 C   0  0  0  0  0  0  0  0  0  0  0  0
   -1.1800   27.7320    8.8830 O   0  0  0  0  0  0  0  0  0  0  0  0
   -0.8660   29.9820    8.0000 C   0  0  0  0  0  0  0  0  0  0  0  0
   -1.9250   30.7130    8.5210 N   0  0  0  0  0  0  0  0  0  0  0  0
   -0.5540   32.0460    7.3310 N   0  0  0  0  0  0  0  0  0  0  0  0
   -0.0250   30.7860    7.2610 C   0  0  0  0  0  0  0  0  0  0  0  0
    1.1170   30.4050    6.6110 N   0  0  0  0  0  0  0  0  0  0  0  0
    2.5830   28.6810    6.3360 N   0  0  0  0  0  0  0  0  0  0  0  0
    3.2360   27.5250    6.6030 C   0  0  0  0  0  0  0  0  0  0  0  0
    3.9870   26.9070    5.5820 C   0  0  0  0  0  0  0  0  0  0  0  0
   -2.3595   32.7604    8.2914 H   0  0  0  0  0  0  0  0  0  0  0  0
    0.3545   26.3508    8.8842 H   0  0  0  0  0  0  0  0  0  0  0  0
   -1.1023   25.9336    7.8903 H   0  0  0  0  0  0  0  0  0  0  0  0
   -2.3865   25.7770   10.0972 H   0  0  0  0  0  0  0  0  0  0  0  0
   -1.7052   23.7997    8.7897 H   0  0  0  0  0  0  0  0  0  0  0  0
   -0.0485   23.8775    9.5216 H   0  0  0  0  0  0  0  0  0  0  0  0
   -2.6639   23.3163   10.9948 H   0  0  0  0  0  0  0  0  0  0  0  0
   -1.3495   22.1328   10.6065 H   0  0  0  0  0  0  0  0  0  0  0  0
   -1.2435   22.9249   12.9696 H   0  0  0  0  0  0  0  0  0  0  0  0
    0.2225   23.3672   12.0183 H   0  0  0  0  0  0  0  0  0  0  0  0
   -2.1477   25.1946   12.6809 H   0  0  0  0  0  0  0  0  0  0  0  0
   -0.4786   25.2773   13.3740 H   0  0  0  0  0  0  0  0  0  0  0  0
    0.4576   25.8447   11.2061 H   0  0  0  0  0  0  0  0  0  0  0  0
   -0.9242   26.9662   11.5745 H   0  0  0  0  0  0  0  0  0  0  0  0
    5.2584   25.2274    5.0311 H   0  0  0  0  0  0  0  0  0  0  0  0
    5.2095   24.2031    7.3177 H   0  0  0  0  0  0  0  0  0  0  0  0
    3.9396   25.3272    9.1666 H   0  0  0  0  0  0  0  0  0  0  0  0
    2.6962   27.4504    8.7124 H   0  0  0  0  0  0  0  0  0  0  0  0
   -0.1774   32.9079    6.9112 H   0  0  0  0  0  0  0  0  0  0  0  0
    3.0661   29.3240    5.6925 H   0  0  0  0  0  0  0  0  0  0  0  0
    4.0242   27.3596    4.5801 H   0  0  0  0  0  0  0  0  0  0  0  0
  1 14  2  0
  1 21  1  0
  1 22  1  0
  2 18  2  0
  2 19  1  0
  3  4  1  0
  3 16  1  0
  4  5  1  0
  4  9  1  0
  5  6  1  0
  6  7  1  0
  7  8  1  0
  8  9  1  0
 10 11  2  0
 10 24  1  0
 11 12  1  0
 12 13  2  0
 13 23  1  0
 14 15  1  0
 15 16  1  0
 15 17  2  0
 17 18  1  0
 17 20  1  0
 19 20  1  0
 20 21  2  0
 22 23  1  0
 23 24  2  0
  2 25  1  0
  3 26  1  0
  3 27  1  0
  4 28  1  0
  5 29  1  0
  5 30  1  0
  6 31  1  0
  6 32  1  0
  7 33  1  0
  7 34  1  0
  8 35  1  0
  8 36  1  0
  9 37  1  0
  9 38  1  0
 10 39  1  0
 11 40  1  0
 12 41  1  0
 13 42  1  0
 19 43  1  0
 22 44  1  0
 24 45  1  0
M  END
>  <atom.dprop.PartialCharge>  (1) 
0.91490000000000005 0.38869999999999999 0.13539999999999999 -0.062700000000000006 -0.074399999999999994 -0.074399999999999994 -0.076399999999999996 -0.074399999999999994
-0.074399999999999994 -0.12 -0.13800000000000001 -0.12 -0.13400000000000001 -0.83699999999999997 0.75760000000000005 -0.41710000000000003 -0.2132 -0.50109999999999999 -0.38200000000000001
0.46879999999999999 -0.75700000000000001 -0.70430000000000004 0.12659999999999999 -0.13400000000000001 0.073800000000000004 0.054199999999999991 0.054199999999999991 0.053699999999999991
0.048449999999999993 0.048449999999999993 0.039699999999999992 0.039699999999999992 0.03719999999999999 0.03719999999999999 0.039699999999999992 0.039699999999999992 0.048449999999999993
0.048449999999999993 0.13300000000000001 0.13300000000000001 0.13300000000000001 0.14299999999999999 0.31769999999999998 0.43680000000000002 0.14299999999999999

$$$$
