1h1s
     RDKit          3D

 50 53  0  0  0  0  0  0  0  0999 V2000
   -3.7962   -8.8862   -8.5498 C   0  0  0  0  0  0  0  0  0  0  0  0
   -7.0711   -6.1127   -7.7786 C   0  0  0  0  0  0  0  0  0  0  0  0
   -3.9889   -9.6591   -4.6074 C   0  0  0  0  0  0  0  0  0  0  0  0
   -3.8048   -9.5190   -3.0962 C   0  0  0  0  0  0  0  0  0  0  0  0
   -3.1950  -10.8231   -2.5463 C   0  0  0  0  0  0  0  0  0  0  0  0
   -2.8918  -10.7183   -1.0498 C   0  0  0  0  0  0  0  0  0  0  0  0
   -1.9608   -9.5383   -0.7487 C   0  0  0  0  0  0  0  0  0  0  0  0
   -2.5806   -8.2270   -1.2543 C   0  0  0  0  0  0  0  0  0  0  0  0
   -2.9050   -8.3078   -2.7554 C   0  0  0  0  0  0  0  0  0  0  0  0
   -0.0077  -11.8646   -8.8755 C   0  0  0  0  0  0  0  0  0  0  0  0
    0.6058  -11.4295   -7.6863 C   0  0  0  0  0  0  0  0  0  0  0  0
    0.0973  -10.3109   -7.0026 C   0  0  0  0  0  0  0  0  0  0  0  0
   -1.0335   -9.6414   -7.5049 C   0  0  0  0  0  0  0  0  0  0  0  0
   -3.9226   -9.1362   -7.2460 N   0  0  0  0  0  0  0  0  0  0  0  0
   -4.8286   -8.4749   -6.4961 C   0  0  0  0  0  0  0  0  0  0  0  0
   -4.8437   -8.6432   -5.1284 O   0  0  0  0  0  0  0  0  0  0  0  0
   -5.6786   -7.5516   -7.1414 C   0  0  0  0  0  0  0  0  0  0  0  0
   -6.6934   -6.7178   -6.6917 N   0  0  0  0  0  0  0  0  0  0  0  0
   -6.3768   -6.4545   -8.9060 N   0  0  0  0  0  0  0  0  0  0  0  0
   -6.4987   -6.1184   -9.8568 H   0  0  0  0  0  0  0  0  0  0  0  0
   -5.4824   -7.4063   -8.4980 C   0  0  0  0  0  0  0  0  0  0  0  0
   -4.5649   -8.0628   -9.2719 N   0  0  0  0  0  0  0  0  0  0  0  0
   -2.7540   -9.4455   -9.1950 N   0  0  0  0  0  0  0  0  0  0  0  0
   -1.6777  -10.0879   -8.6824 C   0  0  0  0  0  0  0  0  0  0  0  0
   -1.1378  -11.1894   -9.3779 C   0  0  0  0  0  0  0  0  0  0  0  0
   -7.8773   -5.4007   -7.7812 H   0  0  0  0  0  0  0  0  0  0  0  0
   -2.9903   -9.6332   -5.0473 H   0  0  0  0  0  0  0  0  0  0  0  0
   -4.4229  -10.6291   -4.8549 H   0  0  0  0  0  0  0  0  0  0  0  0
   -4.7829   -9.3774   -2.6323 H   0  0  0  0  0  0  0  0  0  0  0  0
   -3.8774  -11.6547   -2.7221 H   0  0  0  0  0  0  0  0  0  0  0  0
   -2.2756  -11.0609   -3.0826 H   0  0  0  0  0  0  0  0  0  0  0  0
   -3.8272  -10.5678   -0.5168 H   0  0  0  0  0  0  0  0  0  0  0  0
   -2.4583  -11.6492   -0.6813 H   0  0  0  0  0  0  0  0  0  0  0  0
   -1.7800   -9.4698    0.3247 H   0  0  0  0  0  0  0  0  0  0  0  0
   -0.9904   -9.6965   -1.2222 H   0  0  0  0  0  0  0  0  0  0  0  0
   -3.4926   -8.0111   -0.6950 H   0  0  0  0  0  0  0  0  0  0  0  0
   -1.9020   -7.3964   -1.0650 H   0  0  0  0  0  0  0  0  0  0  0  0
   -1.9698   -8.3728   -3.3142 H   0  0  0  0  0  0  0  0  0  0  0  0
   -3.3877   -7.3827   -3.0769 H   0  0  0  0  0  0  0  0  0  0  0  0
    0.3930  -12.7117   -9.4104 H   0  0  0  0  0  0  0  0  0  0  0  0
    0.5718   -9.9625   -6.0976 H   0  0  0  0  0  0  0  0  0  0  0  0
   -1.4034   -8.7809   -6.9688 H   0  0  0  0  0  0  0  0  0  0  0  0
   -2.8211   -9.4600  -10.2050 H   0  0  0  0  0  0  0  0  0  0  0  0
   -1.5908  -11.5300  -10.2970 H   0  0  0  0  0  0  0  0  0  0  0  0
    1.8202  -12.1370   -7.1618 S   0  0  0  0  0  6  0  0  0  0  0  0
    1.9392  -13.4074   -7.8669 O   0  0  0  0  0  0  0  0  0  0  0  0
    2.9184  -11.1792   -7.1296 O   0  0  0  0  0  0  0  0  0  0  0  0
    1.5305  -12.5544   -5.5145 N   0  0  0  0  0  0  0  0  0  0  0  0
    2.1755  -12.2293   -4.8095 H   0  0  0  0  0  0  0  0  0  0  0  0
    0.7854  -13.2012   -5.3006 H   0  0  0  0  0  0  0  0  0  0  0  0
  1 14  2  0
  1 22  1  0
  1 23  1  0
  2 18  2  0
  2 19  1  0
  2 26  1  0
  3  4  1  0
  3 16  1  0
  3 27  1  0
  3 28  1  0
  4  5  1  0
  4  9  1  0
  4 29  1  0
  5  6  1  0
  5 30  1  0
  5 31  1  0
  6  7  1  0
  6 32  1  0
  6 33  1  0
  7  8  1  0
  7 34  1  0
  7 35  1  0
  8  9  1  0
  8 36  1  0
  8 37  1  0
  9 38  1  0
  9 39  1  0
 10 11  2  0
 10 25  1  0
 10 40  1  0
 11 12  1  0
 11 45  1  0
 12 13  2  0
 12 41  1  0
 13 24  1  0
 13 42  1  0
 14 15  1  0
 15 16  1  0
 15 17  2  0
 17 18  1  0
 17 21  1  0
 19 20  1  0
 19 21  1  0
 21 22  2  0
 23 24  1  0
 23 43  1  0
 24 25  2  0
 25 44  1  0
 45 46  2  0
 45 47  2  0
 45 48  1  0
 48 49  1  0
 48 50  1  0
M  END
>  <atom.dprop.PartialCharge>  (1) 
0.92188000000000003 0.39267999999999997 0.13338 -0.083719999999999989 -0.075419999999999987 -0.073919999999999986 -0.076419999999999988 -0.073919999999999986 -0.075419999999999987
0.0024800000000000022 -0.41352 0.0024800000000000022 -0.18101999999999999 -0.83401999999999998 0.76357999999999993 -0.41512000000000004 -0.20721999999999999 -0.50012000000000001
-0.37802000000000002 0.32067999999999997 0.46577999999999997 -0.75702000000000003 -0.72432000000000007 0.21758 -0.18101999999999999 0.076780000000000001 0.068680000000000005
0.068680000000000005 0.053679999999999999 0.048180000000000001 0.048180000000000001 0.03943 0.03943 0.037679999999999998 0.037679999999999998 0.03943 0.03943 0.048180000000000001
0.048180000000000001 0.15348000000000001 0.15348000000000001 0.15148 0.45077999999999996 0.15148 1.5321800000000001 -0.66082000000000007 -0.66082000000000007 -1.0267199999999999
0.44577999999999995 0.44577999999999995

$$$$
