29
     RDKit          3D

 56 59  0  0  0  0  0  0  0  0999 V2000
   -3.7962   -8.8862   -8.5498 C   0  0  0  0  0  0  0  0  0  0  0  0
   -7.0711   -6.1127   -7.7786 C   0  0  0  0  0  0  0  0  0  0  0  0
   -3.9889   -9.6591   -4.6074 C   0  0  0  0  0  0  0  0  0  0  0  0
   -3.8048   -9.5190   -3.0962 C   0  0  0  0  0  0  0  0  0  0  0  0
   -3.1950  -10.8231   -2.5463 C   0  0  0  0  0  0  0  0  0  0  0  0
   -2.8918  -10.7183   -1.0498 C   0  0  0  0  0  0  0  0  0  0  0  0
   -1.9608   -9.5383   -0.7487 C   0  0  0  0  0  0  0  0  0  0  0  0
   -2.5806   -8.2270   -1.2543 C   0  0  0  0  0  0  0  0  0  0  0  0
   -2.9050   -8.3078   -2.7554 C   0  0  0  0  0  0  0  0  0  0  0  0
   -0.0077  -11.8646   -8.8755 C   0  0  0  0  0  0  0  0  0  0  0  0
    0.6058  -11.4295   -7.6863 C   0  0  0  0  0  0  0  0  0  0  0  0
    0.0973  -10.3109   -7.0026 C   0  0  0  0  0  0  0  0  0  0  0  0
   -1.0335   -9.6414   -7.5049 C   0  0  0  0  0  0  0  0  0  0  0  0
   -3.9226   -9.1362   -7.2460 N   0  0  0  0  0  0  0  0  0  0  0  0
   -4.8286   -8.4749   -6.4961 C   0  0  0  0  0  0  0  0  0  0  0  0
   -4.8437   -8.6432   -5.1284 O   0  0  0  0  0  0  0  0  0  0  0  0
   -5.6786   -7.5516   -7.1414 C   0  0  0  0  0  0  0  0  0  0  0  0
   -6.6934   -6.7178   -6.6917 N   0  0  0  0  0  0  0  0  0  0  0  0
   -6.3768   -6.4545   -8.9060 N   0  0  0  0  0  0  0  0  0  0  0  0
   -6.4987   -6.1184   -9.8568 H   0  0  0  0  0  0  0  0  0  0  0  0
   -5.4824   -7.4063   -8.4980 C   0  0  0  0  0  0  0  0  0  0  0  0
   -4.5649   -8.0628   -9.2719 N   0  0  0  0  0  0  0  0  0  0  0  0
   -2.7540   -9.4455   -9.1950 N   0  0  0  0  0  0  0  0  0  0  0  0
   -1.6777  -10.0879   -8.6824 C   0  0  0  0  0  0  0  0  0  0  0  0
   -1.1378  -11.1894   -9.3779 C   0  0  0  0  0  0  0  0  0  0  0  0
   -7.8773   -5.4007   -7.7812 H   0  0  0  0  0  0  0  0  0  0  0  0
   -2.9903   -9.6332   -5.0473 H   0  0  0  0  0  0  0  0  0  0  0  0
   -4.4229  -10.6291   -4.8549 H   0  0  0  0  0  0  0  0  0  0  0  0
   -4.7829   -9.3774   -2.6323 H   0  0  0  0  0  0  0  0  0  0  0  0
   -3.8774  -11.6547   -2.7221 H   0  0  0  0  0  0  0  0  0  0  0  0
   -2.2756  -11.0609   -3.0826 H   0  0  0  0  0  0  0  0  0  0  0  0
   -3.8272  -10.5678   -0.5168 H   0  0  0  0  0  0  0  0  0  0  0  0
   -2.4583  -11.6492   -0.6813 H   0  0  0  0  0  0  0  0  0  0  0  0
   -1.7800   -9.4698    0.3247 H   0  0  0  0  0  0  0  0  0  0  0  0
   -0.9904   -9.6965   -1.2222 H   0  0  0  0  0  0  0  0  0  0  0  0
   -3.4926   -8.0111   -0.6950 H   0  0  0  0  0  0  0  0  0  0  0  0
   -1.9020   -7.3964   -1.0650 H   0  0  0  0  0  0  0  0  0  0  0  0
   -1.9698   -8.3728   -3.3142 H   0  0  0  0  0  0  0  0  0  0  0  0
   -3.3877   -7.3827   -3.0769 H   0  0  0  0  0  0  0  0  0  0  0  0
    0.3930  -12.7117   -9.4104 H   0  0  0  0  0  0  0  0  0  0  0  0
    0.5718   -9.9625   -6.0976 H   0  0  0  0  0  0  0  0  0  0  0  0
   -1.4034   -8.7809   -6.9688 H   0  0  0  0  0  0  0  0  0  0  0  0
   -2.8211   -9.4600  -10.2050 H   0  0  0  0  0  0  0  0  0  0  0  0
   -1.5908  -11.5300  -10.2970 H   0  0  0  0  0  0  0  0  0  0  0  0
    1.8202  -12.1370   -7.1618 S   0  0  0  0  0  6  0  0  0  0  0  0
    1.9392  -13.4074   -7.8669 O   0  0  0  0  0  0  0  0  0  0  0  0
    2.9184  -11.1792   -7.1296 O   0  0  0  0  0  0  0  0  0  0  0  0
    1.5680  -12.4996   -5.7284 N   0  0  0  0  0  0  0  0  0  0  0  0
    1.1154  -13.8338   -5.3873 C   0  0  0  0  0  0  0  0  0  0  0  0
    1.0139  -14.4428   -6.3210 H   0  0  0  0  0  0  0  0  0  0  0  0
    1.8595  -14.3173   -4.7066 H   0  0  0  0  0  0  0  0  0  0  0  0
    0.1242  -13.7711   -4.8734 H   0  0  0  0  0  0  0  0  0  0  0  0
    1.7772  -11.5173   -4.6845 C   0  0  0  0  0  0  0  0  0  0  0  0
    1.5376  -11.9721   -3.6911 H   0  0  0  0  0  0  0  0  0  0  0  0
    2.8451  -11.1831   -4.6946 H   0  0  0  0  0  0  0  0  0  0  0  0
    1.1095  -10.6376   -4.8620 H   0  0  0  0  0  0  0  0  0  0  0  0
  1 14  2  0
  1 22  1  0
  1 23  1  0
  2 18  2  0
  2 19  1  0
  2 26  1  0
  3  4  1  0
  3 16  1  0
  3 27  1  0
  3 28  1  0
  4  5  1  0
  4  9  1  0
  4 29  1  0
  5  6  1  0
  5 30  1  0
  5 31  1  0
  6  7  1  0
  6 32  1  0
  6 33  1  0
  7  8  1  0
  7 34  1  0
  7 35  1  0
  8  9  1  0
  8 36  1  0
  8 37  1  0
  9 38  1  0
  9 39  1  0
 10 11  2  0
 10 25  1  0
 10 40  1  0
 11 12  1  0
 11 45  1  0
 12 13  2  0
 12 41  1  0
 13 24  1  0
 13 42  1  0
 14 15  1  0
 15 16  1  0
 15 17  2  0
 17 18  1  0
 17 21  1  0
 19 20  1  0
 19 21  1  0
 21 22  2  0
 23 24  1  0
 23 43  1  0
 24 25  2  0
 25 44  1  0
 45 46  2  0
 45 47  2  0
 45 48  1  0
 48 49  1  0
 48 53  1  0
 49 50  1  0
 49 51  1  0
 49 52  1  0
 53 54  1  0
 53 55  1  0
 53 56  1  0
M  END
>  <atom.dprop.PartialCharge>  (1) 
0.92093567857142866 0.39273567857142855 0.13643567857142855 -0.090664321428571434 -0.071364321428571437 -0.073864321428571425 -0.076364321428571427 -0.073864321428571425
-0.071364321428571437 0.0030356785714285676 -0.40646432142857142 0.0030356785714285676 -0.18096432142857144 -0.83296432142857135 0.75963567857142866 -0.41406432142857147
-0.20716432142857144 -0.49906432142857143 -0.37796432142857145 0.32073567857142854 0.46583567857142855 -0.7569643214285714 -0.72426432142857144 0.21763567857142854 -0.18096432142857144
0.076835678571428562 0.068235678571428565 0.068235678571428565 0.066735678571428564 0.043485678571428571 0.043485678571428571 0.039485678571428567 0.039485678571428567 0.039735678571428568
0.039735678571428568 0.039485678571428567 0.039485678571428567 0.043485678571428571 0.043485678571428571 0.15253567857142855 0.15253567857142855 0.15153567857142855 0.45083567857142853
0.15153567857142855 1.5112356785714287 -0.65426432142857138 -0.65426432142857138 -0.81446432142857139 0.20813567857142856 0.043902678571428572 0.043902678571428572 0.043902678571428572
0.20813567857142856 0.043902678571428572 0.043902678571428572 0.043902678571428572

$$$$
