@<TRIPOS>MOLECULE
MOL
   54    57     1     0     0
SMALL
No Charge or Current Charge


@<TRIPOS>ATOM
      1 C1          -3.7960    -8.8860    -8.5500 ca         1 MOL       0.000000
      2 C2          -7.0710    -6.1130    -7.7790 cc         1 MOL       0.000000
      3 C3          -3.9890    -9.6590    -4.6070 c3         1 MOL       0.000000
      4 C4          -3.8050    -9.5190    -3.0960 c6         1 MOL       0.000000
      5 C5          -3.1950   -10.8230    -2.5460 c6         1 MOL       0.000000
      6 C6          -2.8920   -10.7180    -1.0500 c6         1 MOL       0.000000
      7 C7          -1.9610    -9.5380    -0.7490 c6         1 MOL       0.000000
      8 C8          -2.5810    -8.2270    -1.2540 c6         1 MOL       0.000000
      9 C9          -2.9050    -8.3080    -2.7550 c6         1 MOL       0.000000
     10 C10         -0.0080   -11.8650    -8.8760 ca         1 MOL       0.000000
     11 C11          0.6060   -11.4300    -7.6860 ca         1 MOL       0.000000
     12 C12          0.0970   -10.3110    -7.0030 ca         1 MOL       0.000000
     13 C13         -1.0340    -9.6410    -7.5050 ca         1 MOL       0.000000
     14 N1          -3.9230    -9.1360    -7.2460 nb         1 MOL       0.000000
     15 C14         -4.8290    -8.4750    -6.4960 ca         1 MOL       0.000000
     16 O1          -4.8440    -8.6430    -5.1280 os         1 MOL       0.000000
     17 C15         -5.6790    -7.5520    -7.1410 ca         1 MOL       0.000000
     18 N2          -6.6930    -6.7180    -6.6920 nd         1 MOL       0.000000
     19 N3          -6.3770    -6.4550    -8.9060 na         1 MOL       0.000000
     20 H1          -6.4990    -6.1180    -9.8570 hn         1 MOL       0.000000
     21 C16         -5.4820    -7.4060    -8.4980 ca         1 MOL       0.000000
     22 N4          -4.5650    -8.0630    -9.2720 nb         1 MOL       0.000000
     23 N5          -2.7540    -9.4450    -9.1950 nu         1 MOL       0.000000
     24 C17         -1.6780   -10.0880    -8.6820 ca         1 MOL       0.000000
     25 C18         -1.1380   -11.1890    -9.3780 ca         1 MOL       0.000000
     26 H2          -7.8770    -5.4010    -7.7810 h5         1 MOL       0.000000
     27 H3          -2.9900    -9.6330    -5.0470 h1         1 MOL       0.000000
     28 H4          -4.4230   -10.6290    -4.8550 h1         1 MOL       0.000000
     29 H5          -4.7830    -9.3770    -2.6320 hc         1 MOL       0.000000
     30 H6          -3.8770   -11.6550    -2.7220 hc         1 MOL       0.000000
     31 H7          -2.2760   -11.0610    -3.0830 hc         1 MOL       0.000000
     32 H8          -3.8270   -10.5680    -0.5170 hc         1 MOL       0.000000
     33 H9          -2.4580   -11.6490    -0.6810 hc         1 MOL       0.000000
     34 H10         -1.7800    -9.4700     0.3250 hc         1 MOL       0.000000
     35 H11         -0.9900    -9.6970    -1.2220 hc         1 MOL       0.000000
     36 H12         -3.4930    -8.0110    -0.6950 hc         1 MOL       0.000000
     37 H13         -1.9020    -7.3960    -1.0650 hc         1 MOL       0.000000
     38 H14         -1.9700    -8.3730    -3.3140 hc         1 MOL       0.000000
     39 H15         -3.3880    -7.3830    -3.0770 hc         1 MOL       0.000000
     40 H16          0.3930   -12.7120    -9.4100 ha         1 MOL       0.000000
     41 H17         -1.4030    -8.7810    -6.9690 ha         1 MOL       0.000000
     42 H18         -2.8210    -9.4600   -10.2050 hn         1 MOL       0.000000
     43 H19         -1.5910   -11.5300   -10.2970 ha         1 MOL       0.000000
     44 S1           1.8200   -12.1370    -7.1620 sy         1 MOL       0.000000
     45 O2           1.9390   -13.4070    -7.8670 o          1 MOL       0.000000
     46 O3           2.9180   -11.1790    -7.1300 o          1 MOL       0.000000
     47 N6           1.5300   -12.5540    -5.5140 n8         1 MOL       0.000000
     48 H20          1.3960   -11.8140    -4.8420 hn         1 MOL       0.000000
     49 H21          1.6090   -13.5220    -5.2370 hn         1 MOL       0.000000
     50 O4           0.6970    -9.8710    -5.8600 os         1 MOL       0.000000
     51 C19          0.0130    -8.7440    -5.3580 c3         1 MOL       0.000000
     52 H22          0.5120    -8.3910    -4.4230 h1         1 MOL       0.000000
     53 H23          0.0310    -7.9260    -6.1230 h1         1 MOL       0.000000
     54 H24         -1.0480    -9.0210    -5.1340 h1         1 MOL       0.000000
@<TRIPOS>BOND
     1     1    14 ar  
     2     1    22 ar  
     3     1    23 1   
     4     2    18 2   
     5     2    19 1   
     6     2    26 1   
     7     3     4 1   
     8     3    16 1   
     9     3    27 1   
    10     3    28 1   
    11     4     5 1   
    12     4     9 1   
    13     4    29 1   
    14     5     6 1   
    15     5    30 1   
    16     5    31 1   
    17     6     7 1   
    18     6    32 1   
    19     6    33 1   
    20     7     8 1   
    21     7    34 1   
    22     7    35 1   
    23     8     9 1   
    24     8    36 1   
    25     8    37 1   
    26     9    38 1   
    27     9    39 1   
    28    10    11 ar  
    29    10    25 ar  
    30    10    40 1   
    31    11    12 ar  
    32    11    44 1   
    33    12    13 ar  
    34    12    50 1   
    35    13    24 ar  
    36    13    41 1   
    37    14    15 ar  
    38    15    16 1   
    39    15    17 ar  
    40    17    18 1   
    41    17    21 ar  
    42    19    20 1   
    43    19    21 1   
    44    21    22 ar  
    45    23    24 1   
    46    23    42 1   
    47    24    25 ar  
    48    25    43 1   
    49    44    45 2   
    50    44    46 2   
    51    44    47 1   
    52    47    48 1   
    53    47    49 1   
    54    50    51 1   
    55    51    52 1   
    56    51    53 1   
    57    51    54 1   
@<TRIPOS>SUBSTRUCTURE
     1 MOL         1 TEMP              0 ****  ****    0 ROOT
