1h1q
  MOE2020           3D

 45 48  0  0  0  0  0  0  0  0999 V2000
    1.3900   29.1080    6.7940 C   0  0  0  0  0  0  0  0  0  0  0  0
   -1.6910   31.9130    8.0790 C   0  0  0  0  0  0  0  0  0  0  0  0
   -0.7440   26.3750    8.8320 C   0  0  0  0  0  0  0  0  0  0  0  0
   -1.3140   25.5570    9.9910 C   0  0  0  0  0  0  0  0  0  0  0  0
   -1.1210   24.0590    9.6850 C   0  0  0  0  0  0  0  0  0  0  0  0
   -1.5820   23.1800   10.8500 C   0  0  0  0  0  0  0  0  0  0  0  0
   -0.8550   23.5460   12.1490 C   0  0  0  0  0  0  0  0  0  0  0  0
   -1.0780   25.0280   12.4860 C   0  0  0  0  0  0  0  0  0  0  0  0
   -0.6320   25.9350   11.3270 C   0  0  0  0  0  0  0  0  0  0  0  0
    4.6900   25.7130    5.8380 C   0  0  0  0  0  0  0  0  0  0  0  0
    4.6670   25.1400    7.1230 C   0  0  0  0  0  0  0  0  0  0  0  0
    3.9500   25.7660    8.1580 C   0  0  0  0  0  0  0  0  0  0  0  0
    3.2460   26.9560    7.8980 C   0  0  0  0  0  0  0  0  0  0  0  0
    0.6300   28.2310    7.4510 N   0  0  0  0  0  0  0  0  0  0  0  0
   -0.4900   28.6250    8.0920 C   0  0  0  0  0  0  0  0  0  0  0  0
   -1.1800   27.7320    8.8830 O   0  0  0  0  0  0  0  0  0  0  0  0
   -0.8660   29.9820    8.0000 C   0  0  0  0  0  0  0  0  0  0  0  0
   -1.9250   30.7130    8.5210 N   0  0  0  0  0  0  0  0  0  0  0  0
   -0.5540   32.0460    7.3310 N   0  0  0  0  0  0  0  0  0  0  0  0
   -0.1780   32.8770    6.8840 H   0  0  0  0  0  0  0  0  0  0  0  0
   -0.0250   30.7860    7.2610 C   0  0  0  0  0  0  0  0  0  0  0  0
    1.1170   30.4050    6.6110 N   0  0  0  0  0  0  0  0  0  0  0  0
    2.5830   28.6810    6.3360 N   0  0  0  0  0  0  0  0  0  0  0  0
    3.2360   27.5250    6.6030 C   0  0  0  0  0  0  0  0  0  0  0  0
    3.9870   26.9070    5.5820 C   0  0  0  0  0  0  0  0  0  0  0  0
   -2.3540   32.7340    8.2870 H   0  0  0  0  0  0  0  0  0  0  0  0
    0.3420   26.2810    8.8880 H   0  0  0  0  0  0  0  0  0  0  0  0
   -1.0530   25.9540    7.8740 H   0  0  0  0  0  0  0  0  0  0  0  0
   -2.3850   25.7540   10.0700 H   0  0  0  0  0  0  0  0  0  0  0  0
   -1.6740   23.7900    8.7850 H   0  0  0  0  0  0  0  0  0  0  0  0
   -0.0710   23.8530    9.4740 H   0  0  0  0  0  0  0  0  0  0  0  0
   -2.6490   23.3290   10.9950 H   0  0  0  0  0  0  0  0  0  0  0  0
   -1.4340   22.1250   10.6150 H   0  0  0  0  0  0  0  0  0  0  0  0
   -1.2180   22.9240   12.9680 H   0  0  0  0  0  0  0  0  0  0  0  0
    0.2130   23.3450   12.0500 H   0  0  0  0  0  0  0  0  0  0  0  0
   -2.1340   25.2020   12.7000 H   0  0  0  0  0  0  0  0  0  0  0  0
   -0.5350   25.2900   13.3930 H   0  0  0  0  0  0  0  0  0  0  0  0
    0.4520   25.8640   11.2220 H   0  0  0  0  0  0  0  0  0  0  0  0
   -0.8460   26.9770   11.5730 H   0  0  0  0  0  0  0  0  0  0  0  0
    5.2550   25.2430    5.0480 H   0  0  0  0  0  0  0  0  0  0  0  0
    5.2160   24.2330    7.3220 H   0  0  0  0  0  0  0  0  0  0  0  0
    3.9400   25.3400    9.1500 H   0  0  0  0  0  0  0  0  0  0  0  0
    2.7080   27.4240    8.7080 H   0  0  0  0  0  0  0  0  0  0  0  0
    3.0170   29.2660    5.6330 H   0  0  0  0  0  0  0  0  0  0  0  0
    4.0230   27.3390    4.5930 H   0  0  0  0  0  0  0  0  0  0  0  0
  1 14  1  0  0  0  0
  1 22  2  0  0  0  0
  1 23  1  0  0  0  0
  2 18  2  0  0  0  0
  2 19  1  0  0  0  0
  2 26  1  0  0  0  0
  3  4  1  0  0  0  0
  3 16  1  0  0  0  0
  3 27  1  0  0  0  0
  3 28  1  0  0  0  0
  4  5  1  0  0  0  0
  4  9  1  0  0  0  0
  4 29  1  0  0  0  0
  5  6  1  0  0  0  0
  5 30  1  0  0  0  0
  5 31  1  0  0  0  0
  6  7  1  0  0  0  0
  6 32  1  0  0  0  0
  6 33  1  0  0  0  0
  7  8  1  0  0  0  0
  7 34  1  0  0  0  0
  7 35  1  0  0  0  0
  8  9  1  0  0  0  0
  8 36  1  0  0  0  0
  8 37  1  0  0  0  0
  9 38  1  0  0  0  0
  9 39  1  0  0  0  0
 10 11  1  0  0  0  0
 10 25  2  0  0  0  0
 10 40  1  0  0  0  0
 11 12  2  0  0  0  0
 11 41  1  0  0  0  0
 12 13  1  0  0  0  0
 12 42  1  0  0  0  0
 13 24  2  0  0  0  0
 13 43  1  0  0  0  0
 14 15  2  0  0  0  0
 15 16  1  0  0  0  0
 15 17  1  0  0  0  0
 17 18  1  0  0  0  0
 17 21  2  0  0  0  0
 19 20  1  0  0  0  0
 19 21  1  0  0  0  0
 21 22  1  0  0  0  0
 23 24  1  0  0  0  0
 23 44  1  0  0  0  0
 24 25  1  0  0  0  0
 25 45  1  0  0  0  0
M  END
$$$$
1h1r
  MOE2020           3D

 45 48  0  0  0  0  0  0  0  0999 V2000
    1.3900   29.1080    6.7940 C   0  0  0  0  0  0  0  0  0  0  0  0
   -1.6910   31.9130    8.0790 C   0  0  0  0  0  0  0  0  0  0  0  0
   -0.7440   26.3750    8.8320 C   0  0  0  0  0  0  0  0  0  0  0  0
   -1.3140   25.5570    9.9910 C   0  0  0  0  0  0  0  0  0  0  0  0
   -1.1210   24.0590    9.6850 C   0  0  0  0  0  0  0  0  0  0  0  0
   -1.5820   23.1800   10.8500 C   0  0  0  0  0  0  0  0  0  0  0  0
   -0.8550   23.5460   12.1490 C   0  0  0  0  0  0  0  0  0  0  0  0
   -1.0780   25.0280   12.4860 C   0  0  0  0  0  0  0  0  0  0  0  0
   -0.6320   25.9350   11.3270 C   0  0  0  0  0  0  0  0  0  0  0  0
    4.6900   25.7130    5.8380 C   0  0  0  0  0  0  0  0  0  0  0  0
    4.6670   25.1400    7.1230 C   0  0  0  0  0  0  0  0  0  0  0  0
    3.9500   25.7660    8.1580 C   0  0  0  0  0  0  0  0  0  0  0  0
    3.2460   26.9560    7.8980 C   0  0  0  0  0  0  0  0  0  0  0  0
    0.6300   28.2310    7.4510 N   0  0  0  0  0  0  0  0  0  0  0  0
   -0.4900   28.6250    8.0920 C   0  0  0  0  0  0  0  0  0  0  0  0
   -1.1800   27.7320    8.8830 O   0  0  0  0  0  0  0  0  0  0  0  0
   -0.8660   29.9820    8.0000 C   0  0  0  0  0  0  0  0  0  0  0  0
   -1.9250   30.7130    8.5210 N   0  0  0  0  0  0  0  0  0  0  0  0
   -0.5540   32.0460    7.3310 N   0  0  0  0  0  0  0  0  0  0  0  0
   -0.1780   32.8770    6.8840 H   0  0  0  0  0  0  0  0  0  0  0  0
   -0.0250   30.7860    7.2610 C   0  0  0  0  0  0  0  0  0  0  0  0
    1.1170   30.4050    6.6110 N   0  0  0  0  0  0  0  0  0  0  0  0
    2.5830   28.6810    6.3360 N   0  0  0  0  0  0  0  0  0  0  0  0
    3.2360   27.5250    6.6030 C   0  0  0  0  0  0  0  0  0  0  0  0
    3.9870   26.9070    5.5820 C   0  0  0  0  0  0  0  0  0  0  0  0
   -2.3540   32.7340    8.2870 H   0  0  0  0  0  0  0  0  0  0  0  0
    0.3420   26.2810    8.8880 H   0  0  0  0  0  0  0  0  0  0  0  0
   -1.0530   25.9540    7.8740 H   0  0  0  0  0  0  0  0  0  0  0  0
   -2.3850   25.7540   10.0700 H   0  0  0  0  0  0  0  0  0  0  0  0
   -1.6740   23.7900    8.7850 H   0  0  0  0  0  0  0  0  0  0  0  0
   -0.0710   23.8530    9.4740 H   0  0  0  0  0  0  0  0  0  0  0  0
   -2.6490   23.3290   10.9950 H   0  0  0  0  0  0  0  0  0  0  0  0
   -1.4340   22.1250   10.6150 H   0  0  0  0  0  0  0  0  0  0  0  0
   -1.2180   22.9240   12.9680 H   0  0  0  0  0  0  0  0  0  0  0  0
    0.2130   23.3450   12.0500 H   0  0  0  0  0  0  0  0  0  0  0  0
   -2.1340   25.2020   12.7000 H   0  0  0  0  0  0  0  0  0  0  0  0
   -0.5350   25.2900   13.3930 H   0  0  0  0  0  0  0  0  0  0  0  0
    0.4520   25.8640   11.2220 H   0  0  0  0  0  0  0  0  0  0  0  0
   -0.8460   26.9770   11.5730 H   0  0  0  0  0  0  0  0  0  0  0  0
    5.2550   25.2430    5.0480 H   0  0  0  0  0  0  0  0  0  0  0  0
    5.2160   24.2330    7.3220 H   0  0  0  0  0  0  0  0  0  0  0  0
    2.7080   27.4240    8.7080 H   0  0  0  0  0  0  0  0  0  0  0  0
    3.0170   29.2660    5.6330 H   0  0  0  0  0  0  0  0  0  0  0  0
    4.0230   27.3390    4.5930 H   0  0  0  0  0  0  0  0  0  0  0  0
    3.9350   25.0830    9.7470 Cl  0  0  0  0  0  0  0  0  0  0  0  0
  1 14  1  0  0  0  0
  1 22  2  0  0  0  0
  1 23  1  0  0  0  0
  2 18  2  0  0  0  0
  2 19  1  0  0  0  0
  2 26  1  0  0  0  0
  3  4  1  0  0  0  0
  3 16  1  0  0  0  0
  3 27  1  0  0  0  0
  3 28  1  0  0  0  0
  4  5  1  0  0  0  0
  4  9  1  0  0  0  0
  4 29  1  0  0  0  0
  5  6  1  0  0  0  0
  5 30  1  0  0  0  0
  5 31  1  0  0  0  0
  6  7  1  0  0  0  0
  6 32  1  0  0  0  0
  6 33  1  0  0  0  0
  7  8  1  0  0  0  0
  7 34  1  0  0  0  0
  7 35  1  0  0  0  0
  8  9  1  0  0  0  0
  8 36  1  0  0  0  0
  8 37  1  0  0  0  0
  9 38  1  0  0  0  0
  9 39  1  0  0  0  0
 10 11  1  0  0  0  0
 10 25  2  0  0  0  0
 10 40  1  0  0  0  0
 11 12  2  0  0  0  0
 11 41  1  0  0  0  0
 12 13  1  0  0  0  0
 12 45  1  0  0  0  0
 13 24  2  0  0  0  0
 13 42  1  0  0  0  0
 14 15  2  0  0  0  0
 15 16  1  0  0  0  0
 15 17  1  0  0  0  0
 17 18  1  0  0  0  0
 17 21  2  0  0  0  0
 19 20  1  0  0  0  0
 19 21  1  0  0  0  0
 21 22  1  0  0  0  0
 23 24  1  0  0  0  0
 23 43  1  0  0  0  0
 24 25  1  0  0  0  0
 25 44  1  0  0  0  0
M  END
$$$$
1h1s
  MOE2020           3D

 50 53  0  0  0  0  0  0  0  0999 V2000
    1.3900   29.1080    6.7940 C   0  0  0  0  0  0  0  0  0  0  0  0
   -1.6910   31.9130    8.0790 C   0  0  0  0  0  0  0  0  0  0  0  0
   -0.7440   26.3750    8.8320 C   0  0  0  0  0  0  0  0  0  0  0  0
   -1.3140   25.5570    9.9910 C   0  0  0  0  0  0  0  0  0  0  0  0
   -1.1210   24.0590    9.6850 C   0  0  0  0  0  0  0  0  0  0  0  0
   -1.5820   23.1800   10.8500 C   0  0  0  0  0  0  0  0  0  0  0  0
   -0.8550   23.5460   12.1490 C   0  0  0  0  0  0  0  0  0  0  0  0
   -1.0780   25.0280   12.4860 C   0  0  0  0  0  0  0  0  0  0  0  0
   -0.6320   25.9350   11.3270 C   0  0  0  0  0  0  0  0  0  0  0  0
    4.6900   25.7130    5.8380 C   0  0  0  0  0  0  0  0  0  0  0  0
    4.6670   25.1400    7.1230 C   0  0  0  0  0  0  0  0  0  0  0  0
    3.9500   25.7660    8.1580 C   0  0  0  0  0  0  0  0  0  0  0  0
    3.2460   26.9560    7.8980 C   0  0  0  0  0  0  0  0  0  0  0  0
    0.6300   28.2310    7.4510 N   0  0  0  0  0  0  0  0  0  0  0  0
   -0.4900   28.6250    8.0920 C   0  0  0  0  0  0  0  0  0  0  0  0
   -1.1800   27.7320    8.8830 O   0  0  0  0  0  0  0  0  0  0  0  0
   -0.8660   29.9820    8.0000 C   0  0  0  0  0  0  0  0  0  0  0  0
   -1.9250   30.7130    8.5210 N   0  0  0  0  0  0  0  0  0  0  0  0
   -0.5540   32.0460    7.3310 N   0  0  0  0  0  0  0  0  0  0  0  0
   -0.1780   32.8770    6.8840 H   0  0  0  0  0  0  0  0  0  0  0  0
   -0.0250   30.7860    7.2610 C   0  0  0  0  0  0  0  0  0  0  0  0
    1.1170   30.4050    6.6110 N   0  0  0  0  0  0  0  0  0  0  0  0
    2.5830   28.6810    6.3360 N   0  0  0  0  0  0  0  0  0  0  0  0
    3.2360   27.5250    6.6030 C   0  0  0  0  0  0  0  0  0  0  0  0
    3.9870   26.9070    5.5820 C   0  0  0  0  0  0  0  0  0  0  0  0
   -2.3540   32.7340    8.2870 H   0  0  0  0  0  0  0  0  0  0  0  0
    0.3420   26.2810    8.8880 H   0  0  0  0  0  0  0  0  0  0  0  0
   -1.0530   25.9540    7.8740 H   0  0  0  0  0  0  0  0  0  0  0  0
   -2.3850   25.7540   10.0700 H   0  0  0  0  0  0  0  0  0  0  0  0
   -1.6740   23.7900    8.7850 H   0  0  0  0  0  0  0  0  0  0  0  0
   -0.0710   23.8530    9.4740 H   0  0  0  0  0  0  0  0  0  0  0  0
   -2.6490   23.3290   10.9950 H   0  0  0  0  0  0  0  0  0  0  0  0
   -1.4340   22.1250   10.6150 H   0  0  0  0  0  0  0  0  0  0  0  0
   -1.2180   22.9240   12.9680 H   0  0  0  0  0  0  0  0  0  0  0  0
    0.2130   23.3450   12.0500 H   0  0  0  0  0  0  0  0  0  0  0  0
   -2.1340   25.2020   12.7000 H   0  0  0  0  0  0  0  0  0  0  0  0
   -0.5350   25.2900   13.3930 H   0  0  0  0  0  0  0  0  0  0  0  0
    0.4520   25.8640   11.2220 H   0  0  0  0  0  0  0  0  0  0  0  0
   -0.8460   26.9770   11.5730 H   0  0  0  0  0  0  0  0  0  0  0  0
    5.2550   25.2430    5.0480 H   0  0  0  0  0  0  0  0  0  0  0  0
    3.9400   25.3400    9.1500 H   0  0  0  0  0  0  0  0  0  0  0  0
    2.7080   27.4240    8.7080 H   0  0  0  0  0  0  0  0  0  0  0  0
    3.0170   29.2660    5.6330 H   0  0  0  0  0  0  0  0  0  0  0  0
    4.0230   27.3390    4.5930 H   0  0  0  0  0  0  0  0  0  0  0  0
    5.4310   23.8790    7.4000 S   0  0  0  0  0  0  0  0  0  0  0  0
    5.8110   23.2940    6.1200 O   0  0  0  0  0  0  0  0  0  0  0  0
    6.4230   24.1720    8.4270 O   0  0  0  0  0  0  0  0  0  0  0  0
    4.3520   22.7430    8.1190 N   0  0  0  0  0  0  0  0  0  0  0  0
    4.5870   22.3510    9.0190 H   0  0  0  0  0  0  0  0  0  0  0  0
    3.5640   22.4130    7.5810 H   0  0  0  0  0  0  0  0  0  0  0  0
  1 14  1  0  0  0  0
  1 22  2  0  0  0  0
  1 23  1  0  0  0  0
  2 18  2  0  0  0  0
  2 19  1  0  0  0  0
  2 26  1  0  0  0  0
  3  4  1  0  0  0  0
  3 16  1  0  0  0  0
  3 27  1  0  0  0  0
  3 28  1  0  0  0  0
  4  5  1  0  0  0  0
  4  9  1  0  0  0  0
  4 29  1  0  0  0  0
  5  6  1  0  0  0  0
  5 30  1  0  0  0  0
  5 31  1  0  0  0  0
  6  7  1  0  0  0  0
  6 32  1  0  0  0  0
  6 33  1  0  0  0  0
  7  8  1  0  0  0  0
  7 34  1  0  0  0  0
  7 35  1  0  0  0  0
  8  9  1  0  0  0  0
  8 36  1  0  0  0  0
  8 37  1  0  0  0  0
  9 38  1  0  0  0  0
  9 39  1  0  0  0  0
 10 11  1  0  0  0  0
 10 25  2  0  0  0  0
 10 40  1  0  0  0  0
 11 12  2  0  0  0  0
 11 45  1  0  0  0  0
 12 13  1  0  0  0  0
 12 41  1  0  0  0  0
 13 24  2  0  0  0  0
 13 42  1  0  0  0  0
 14 15  2  0  0  0  0
 15 16  1  0  0  0  0
 15 17  1  0  0  0  0
 17 18  1  0  0  0  0
 17 21  2  0  0  0  0
 19 20  1  0  0  0  0
 19 21  1  0  0  0  0
 21 22  1  0  0  0  0
 23 24  1  0  0  0  0
 23 43  1  0  0  0  0
 24 25  1  0  0  0  0
 25 44  1  0  0  0  0
 45 46  2  0  0  0  0
 45 47  2  0  0  0  0
 45 48  1  0  0  0  0
 48 49  1  0  0  0  0
 48 50  1  0  0  0  0
M  END
$$$$
1oi9
  MOE2020           3D

 46 49  0  0  0  0  0  0  0  0999 V2000
    1.3900   29.1080    6.7940 C   0  0  0  0  0  0  0  0  0  0  0  0
   -1.6910   31.9130    8.0790 C   0  0  0  0  0  0  0  0  0  0  0  0
   -0.7440   26.3750    8.8320 C   0  0  0  0  0  0  0  0  0  0  0  0
   -1.3140   25.5570    9.9910 C   0  0  0  0  0  0  0  0  0  0  0  0
   -1.1210   24.0590    9.6850 C   0  0  0  0  0  0  0  0  0  0  0  0
   -1.5820   23.1800   10.8500 C   0  0  0  0  0  0  0  0  0  0  0  0
   -0.8550   23.5460   12.1490 C   0  0  0  0  0  0  0  0  0  0  0  0
   -1.0780   25.0280   12.4860 C   0  0  0  0  0  0  0  0  0  0  0  0
   -0.6320   25.9350   11.3270 C   0  0  0  0  0  0  0  0  0  0  0  0
    4.6900   25.7130    5.8380 C   0  0  0  0  0  0  0  0  0  0  0  0
    4.6670   25.1400    7.1230 C   0  0  0  0  0  0  0  0  0  0  0  0
    3.9500   25.7660    8.1580 C   0  0  0  0  0  0  0  0  0  0  0  0
    3.2460   26.9560    7.8980 C   0  0  0  0  0  0  0  0  0  0  0  0
    0.6300   28.2310    7.4510 N   0  0  0  0  0  0  0  0  0  0  0  0
   -0.4900   28.6250    8.0920 C   0  0  0  0  0  0  0  0  0  0  0  0
   -1.1800   27.7320    8.8830 O   0  0  0  0  0  0  0  0  0  0  0  0
   -0.8660   29.9820    8.0000 C   0  0  0  0  0  0  0  0  0  0  0  0
   -1.9250   30.7130    8.5210 N   0  0  0  0  0  0  0  0  0  0  0  0
   -0.5540   32.0460    7.3310 N   0  0  0  0  0  0  0  0  0  0  0  0
   -0.1780   32.8770    6.8840 H   0  0  0  0  0  0  0  0  0  0  0  0
   -0.0250   30.7860    7.2610 C   0  0  0  0  0  0  0  0  0  0  0  0
    1.1170   30.4050    6.6110 N   0  0  0  0  0  0  0  0  0  0  0  0
    2.5830   28.6810    6.3360 N   0  0  0  0  0  0  0  0  0  0  0  0
    3.2360   27.5250    6.6030 C   0  0  0  0  0  0  0  0  0  0  0  0
    3.9870   26.9070    5.5820 C   0  0  0  0  0  0  0  0  0  0  0  0
   -2.3540   32.7340    8.2870 H   0  0  0  0  0  0  0  0  0  0  0  0
    0.3420   26.2810    8.8880 H   0  0  0  0  0  0  0  0  0  0  0  0
   -1.0530   25.9540    7.8740 H   0  0  0  0  0  0  0  0  0  0  0  0
   -2.3850   25.7540   10.0700 H   0  0  0  0  0  0  0  0  0  0  0  0
   -1.6740   23.7900    8.7850 H   0  0  0  0  0  0  0  0  0  0  0  0
   -0.0710   23.8530    9.4740 H   0  0  0  0  0  0  0  0  0  0  0  0
   -2.6490   23.3290   10.9950 H   0  0  0  0  0  0  0  0  0  0  0  0
   -1.4340   22.1250   10.6150 H   0  0  0  0  0  0  0  0  0  0  0  0
   -1.2180   22.9240   12.9680 H   0  0  0  0  0  0  0  0  0  0  0  0
    0.2130   23.3450   12.0500 H   0  0  0  0  0  0  0  0  0  0  0  0
   -2.1340   25.2020   12.7000 H   0  0  0  0  0  0  0  0  0  0  0  0
   -0.5350   25.2900   13.3930 H   0  0  0  0  0  0  0  0  0  0  0  0
    0.4520   25.8640   11.2220 H   0  0  0  0  0  0  0  0  0  0  0  0
   -0.8460   26.9770   11.5730 H   0  0  0  0  0  0  0  0  0  0  0  0
    5.2550   25.2430    5.0480 H   0  0  0  0  0  0  0  0  0  0  0  0
    3.9400   25.3400    9.1500 H   0  0  0  0  0  0  0  0  0  0  0  0
    2.7080   27.4240    8.7080 H   0  0  0  0  0  0  0  0  0  0  0  0
    3.0170   29.2660    5.6330 H   0  0  0  0  0  0  0  0  0  0  0  0
    4.0230   27.3390    4.5930 H   0  0  0  0  0  0  0  0  0  0  0  0
    5.3620   23.9930    7.3750 O   0  0  0  0  0  0  0  0  0  0  0  0
    5.2460   23.7370    8.2770 H   0  0  0  0  0  0  0  0  0  0  0  0
  1 14  1  0  0  0  0
  1 22  2  0  0  0  0
  1 23  1  0  0  0  0
  2 18  2  0  0  0  0
  2 19  1  0  0  0  0
  2 26  1  0  0  0  0
  3  4  1  0  0  0  0
  3 16  1  0  0  0  0
  3 27  1  0  0  0  0
  3 28  1  0  0  0  0
  4  5  1  0  0  0  0
  4  9  1  0  0  0  0
  4 29  1  0  0  0  0
  5  6  1  0  0  0  0
  5 30  1  0  0  0  0
  5 31  1  0  0  0  0
  6  7  1  0  0  0  0
  6 32  1  0  0  0  0
  6 33  1  0  0  0  0
  7  8  1  0  0  0  0
  7 34  1  0  0  0  0
  7 35  1  0  0  0  0
  8  9  1  0  0  0  0
  8 36  1  0  0  0  0
  8 37  1  0  0  0  0
  9 38  1  0  0  0  0
  9 39  1  0  0  0  0
 10 11  1  0  0  0  0
 10 25  2  0  0  0  0
 10 40  1  0  0  0  0
 11 12  2  0  0  0  0
 11 45  1  0  0  0  0
 12 13  1  0  0  0  0
 12 41  1  0  0  0  0
 13 24  2  0  0  0  0
 13 42  1  0  0  0  0
 14 15  2  0  0  0  0
 15 16  1  0  0  0  0
 15 17  1  0  0  0  0
 17 18  1  0  0  0  0
 17 21  2  0  0  0  0
 19 20  1  0  0  0  0
 19 21  1  0  0  0  0
 21 22  1  0  0  0  0
 23 24  1  0  0  0  0
 23 43  1  0  0  0  0
 24 25  1  0  0  0  0
 25 44  1  0  0  0  0
 45 46  1  0  0  0  0
M  END
$$$$
1oiu
  MOE2020           3D

 50 53  0  0  0  0  0  0  0  0999 V2000
    1.3900   29.1080    6.7940 C   0  0  0  0  0  0  0  0  0  0  0  0
   -1.6910   31.9130    8.0790 C   0  0  0  0  0  0  0  0  0  0  0  0
   -0.7440   26.3750    8.8320 C   0  0  0  0  0  0  0  0  0  0  0  0
   -1.3140   25.5570    9.9910 C   0  0  0  0  0  0  0  0  0  0  0  0
   -1.1210   24.0590    9.6850 C   0  0  0  0  0  0  0  0  0  0  0  0
   -1.5820   23.1800   10.8500 C   0  0  0  0  0  0  0  0  0  0  0  0
   -0.8550   23.5460   12.1490 C   0  0  0  0  0  0  0  0  0  0  0  0
   -1.0780   25.0280   12.4860 C   0  0  0  0  0  0  0  0  0  0  0  0
   -0.6320   25.9350   11.3270 C   0  0  0  0  0  0  0  0  0  0  0  0
    4.6900   25.7130    5.8380 C   0  0  0  0  0  0  0  0  0  0  0  0
    4.6670   25.1400    7.1230 C   0  0  0  0  0  0  0  0  0  0  0  0
    3.9500   25.7660    8.1580 C   0  0  0  0  0  0  0  0  0  0  0  0
    3.2460   26.9560    7.8980 C   0  0  0  0  0  0  0  0  0  0  0  0
    0.6300   28.2310    7.4510 N   0  0  0  0  0  0  0  0  0  0  0  0
   -0.4900   28.6250    8.0920 C   0  0  0  0  0  0  0  0  0  0  0  0
   -1.1800   27.7320    8.8830 O   0  0  0  0  0  0  0  0  0  0  0  0
   -0.8660   29.9820    8.0000 C   0  0  0  0  0  0  0  0  0  0  0  0
   -1.9250   30.7130    8.5210 N   0  0  0  0  0  0  0  0  0  0  0  0
   -0.5540   32.0460    7.3310 N   0  0  0  0  0  0  0  0  0  0  0  0
   -0.1780   32.8770    6.8840 H   0  0  0  0  0  0  0  0  0  0  0  0
   -0.0250   30.7860    7.2610 C   0  0  0  0  0  0  0  0  0  0  0  0
    1.1170   30.4050    6.6110 N   0  0  0  0  0  0  0  0  0  0  0  0
    2.5830   28.6810    6.3360 N   0  0  0  0  0  0  0  0  0  0  0  0
    3.2360   27.5250    6.6030 C   0  0  0  0  0  0  0  0  0  0  0  0
    3.9870   26.9070    5.5820 C   0  0  0  0  0  0  0  0  0  0  0  0
   -2.3540   32.7340    8.2870 H   0  0  0  0  0  0  0  0  0  0  0  0
    0.3420   26.2810    8.8880 H   0  0  0  0  0  0  0  0  0  0  0  0
   -1.0530   25.9540    7.8740 H   0  0  0  0  0  0  0  0  0  0  0  0
   -2.3850   25.7540   10.0700 H   0  0  0  0  0  0  0  0  0  0  0  0
   -1.6740   23.7900    8.7850 H   0  0  0  0  0  0  0  0  0  0  0  0
   -0.0710   23.8530    9.4740 H   0  0  0  0  0  0  0  0  0  0  0  0
   -2.6490   23.3290   10.9950 H   0  0  0  0  0  0  0  0  0  0  0  0
   -1.4340   22.1250   10.6150 H   0  0  0  0  0  0  0  0  0  0  0  0
   -1.2180   22.9240   12.9680 H   0  0  0  0  0  0  0  0  0  0  0  0
    0.2130   23.3450   12.0500 H   0  0  0  0  0  0  0  0  0  0  0  0
   -2.1340   25.2020   12.7000 H   0  0  0  0  0  0  0  0  0  0  0  0
   -0.5350   25.2900   13.3930 H   0  0  0  0  0  0  0  0  0  0  0  0
    0.4520   25.8640   11.2220 H   0  0  0  0  0  0  0  0  0  0  0  0
   -0.8460   26.9770   11.5730 H   0  0  0  0  0  0  0  0  0  0  0  0
    5.2160   24.2330    7.3220 H   0  0  0  0  0  0  0  0  0  0  0  0
    3.9400   25.3400    9.1500 H   0  0  0  0  0  0  0  0  0  0  0  0
    2.7080   27.4240    8.7080 H   0  0  0  0  0  0  0  0  0  0  0  0
    3.0170   29.2660    5.6330 H   0  0  0  0  0  0  0  0  0  0  0  0
    4.0230   27.3390    4.5930 H   0  0  0  0  0  0  0  0  0  0  0  0
    5.4760   25.0600    4.7400 S   0  0  0  0  0  0  0  0  0  0  0  0
    4.8840   23.7520    4.4820 O   0  0  0  0  0  0  0  0  0  0  0  0
    5.6560   26.0380    3.6730 O   0  0  0  0  0  0  0  0  0  0  0  0
    7.0610   24.7340    5.3330 N   0  0  0  0  0  0  0  0  0  0  0  0
    7.6510   25.5100    5.5980 H   0  0  0  0  0  0  0  0  0  0  0  0
    7.4060   23.7850    5.3030 H   0  0  0  0  0  0  0  0  0  0  0  0
  1 14  1  0  0  0  0
  1 22  2  0  0  0  0
  1 23  1  0  0  0  0
  2 18  2  0  0  0  0
  2 19  1  0  0  0  0
  2 26  1  0  0  0  0
  3  4  1  0  0  0  0
  3 16  1  0  0  0  0
  3 27  1  0  0  0  0
  3 28  1  0  0  0  0
  4  5  1  0  0  0  0
  4  9  1  0  0  0  0
  4 29  1  0  0  0  0
  5  6  1  0  0  0  0
  5 30  1  0  0  0  0
  5 31  1  0  0  0  0
  6  7  1  0  0  0  0
  6 32  1  0  0  0  0
  6 33  1  0  0  0  0
  7  8  1  0  0  0  0
  7 34  1  0  0  0  0
  7 35  1  0  0  0  0
  8  9  1  0  0  0  0
  8 36  1  0  0  0  0
  8 37  1  0  0  0  0
  9 38  1  0  0  0  0
  9 39  1  0  0  0  0
 10 11  1  0  0  0  0
 10 25  2  0  0  0  0
 10 45  1  0  0  0  0
 11 12  2  0  0  0  0
 11 40  1  0  0  0  0
 12 13  1  0  0  0  0
 12 41  1  0  0  0  0
 13 24  2  0  0  0  0
 13 42  1  0  0  0  0
 14 15  2  0  0  0  0
 15 16  1  0  0  0  0
 15 17  1  0  0  0  0
 17 18  1  0  0  0  0
 17 21  2  0  0  0  0
 19 20  1  0  0  0  0
 19 21  1  0  0  0  0
 21 22  1  0  0  0  0
 23 24  1  0  0  0  0
 23 43  1  0  0  0  0
 24 25  1  0  0  0  0
 25 44  1  0  0  0  0
 45 46  2  0  0  0  0
 45 47  2  0  0  0  0
 45 48  1  0  0  0  0
 48 49  1  0  0  0  0
 48 50  1  0  0  0  0
M  END
$$$$
1oiy
  MOE2020           3D

 49 52  0  0  0  0  0  0  0  0999 V2000
    1.3900   29.1080    6.7940 C   0  0  0  0  0  0  0  0  0  0  0  0
   -1.6910   31.9130    8.0790 C   0  0  0  0  0  0  0  0  0  0  0  0
   -0.7440   26.3750    8.8320 C   0  0  0  0  0  0  0  0  0  0  0  0
   -1.3140   25.5570    9.9910 C   0  0  0  0  0  0  0  0  0  0  0  0
   -1.1210   24.0590    9.6850 C   0  0  0  0  0  0  0  0  0  0  0  0
   -1.5820   23.1800   10.8500 C   0  0  0  0  0  0  0  0  0  0  0  0
   -0.8550   23.5460   12.1490 C   0  0  0  0  0  0  0  0  0  0  0  0
   -1.0780   25.0280   12.4860 C   0  0  0  0  0  0  0  0  0  0  0  0
   -0.6320   25.9350   11.3270 C   0  0  0  0  0  0  0  0  0  0  0  0
    4.6900   25.7130    5.8380 C   0  0  0  0  0  0  0  0  0  0  0  0
    4.6670   25.1400    7.1230 C   0  0  0  0  0  0  0  0  0  0  0  0
    3.9500   25.7660    8.1580 C   0  0  0  0  0  0  0  0  0  0  0  0
    3.2460   26.9560    7.8980 C   0  0  0  0  0  0  0  0  0  0  0  0
    0.6300   28.2310    7.4510 N   0  0  0  0  0  0  0  0  0  0  0  0
   -0.4900   28.6250    8.0920 C   0  0  0  0  0  0  0  0  0  0  0  0
   -1.1800   27.7320    8.8830 O   0  0  0  0  0  0  0  0  0  0  0  0
   -0.8660   29.9820    8.0000 C   0  0  0  0  0  0  0  0  0  0  0  0
   -1.9250   30.7130    8.5210 N   0  0  0  0  0  0  0  0  0  0  0  0
   -0.5540   32.0460    7.3310 N   0  0  0  0  0  0  0  0  0  0  0  0
   -0.1780   32.8770    6.8840 H   0  0  0  0  0  0  0  0  0  0  0  0
   -0.0250   30.7860    7.2610 C   0  0  0  0  0  0  0  0  0  0  0  0
    1.1170   30.4050    6.6110 N   0  0  0  0  0  0  0  0  0  0  0  0
    2.5830   28.6810    6.3360 N   0  0  0  0  0  0  0  0  0  0  0  0
    3.2360   27.5250    6.6030 C   0  0  0  0  0  0  0  0  0  0  0  0
    3.9870   26.9070    5.5820 C   0  0  0  0  0  0  0  0  0  0  0  0
   -2.3540   32.7340    8.2870 H   0  0  0  0  0  0  0  0  0  0  0  0
    0.3420   26.2810    8.8880 H   0  0  0  0  0  0  0  0  0  0  0  0
   -1.0530   25.9540    7.8740 H   0  0  0  0  0  0  0  0  0  0  0  0
   -2.3850   25.7540   10.0700 H   0  0  0  0  0  0  0  0  0  0  0  0
   -1.6740   23.7900    8.7850 H   0  0  0  0  0  0  0  0  0  0  0  0
   -0.0710   23.8530    9.4740 H   0  0  0  0  0  0  0  0  0  0  0  0
   -2.6490   23.3290   10.9950 H   0  0  0  0  0  0  0  0  0  0  0  0
   -1.4340   22.1250   10.6150 H   0  0  0  0  0  0  0  0  0  0  0  0
   -1.2180   22.9240   12.9680 H   0  0  0  0  0  0  0  0  0  0  0  0
    0.2130   23.3450   12.0500 H   0  0  0  0  0  0  0  0  0  0  0  0
   -2.1340   25.2020   12.7000 H   0  0  0  0  0  0  0  0  0  0  0  0
   -0.5350   25.2900   13.3930 H   0  0  0  0  0  0  0  0  0  0  0  0
    0.4520   25.8640   11.2220 H   0  0  0  0  0  0  0  0  0  0  0  0
   -0.8460   26.9770   11.5730 H   0  0  0  0  0  0  0  0  0  0  0  0
    5.2550   25.2430    5.0480 H   0  0  0  0  0  0  0  0  0  0  0  0
    3.9400   25.3400    9.1500 H   0  0  0  0  0  0  0  0  0  0  0  0
    2.7080   27.4240    8.7080 H   0  0  0  0  0  0  0  0  0  0  0  0
    3.0170   29.2660    5.6330 H   0  0  0  0  0  0  0  0  0  0  0  0
    4.0230   27.3390    4.5930 H   0  0  0  0  0  0  0  0  0  0  0  0
    6.1560   23.4730    6.4890 O   0  0  0  0  0  0  0  0  0  0  0  0
    5.4120   23.9100    7.3930 C   0  0  0  0  0  0  0  0  0  0  0  0
    5.2290   23.2660    8.7350 N   0  0  0  0  0  0  0  0  0  0  0  0
    4.5210   23.8580    9.3340 H   0  0  0  0  0  0  0  0  0  0  0  0
    5.7260   22.4160    8.9600 H   0  0  0  0  0  0  0  0  0  0  0  0
  1 14  1  0  0  0  0
  1 22  2  0  0  0  0
  1 23  1  0  0  0  0
  2 18  2  0  0  0  0
  2 19  1  0  0  0  0
  2 26  1  0  0  0  0
  3  4  1  0  0  0  0
  3 16  1  0  0  0  0
  3 27  1  0  0  0  0
  3 28  1  0  0  0  0
  4  5  1  0  0  0  0
  4  9  1  0  0  0  0
  4 29  1  0  0  0  0
  5  6  1  0  0  0  0
  5 30  1  0  0  0  0
  5 31  1  0  0  0  0
  6  7  1  0  0  0  0
  6 32  1  0  0  0  0
  6 33  1  0  0  0  0
  7  8  1  0  0  0  0
  7 34  1  0  0  0  0
  7 35  1  0  0  0  0
  8  9  1  0  0  0  0
  8 36  1  0  0  0  0
  8 37  1  0  0  0  0
  9 38  1  0  0  0  0
  9 39  1  0  0  0  0
 10 11  1  0  0  0  0
 10 25  2  0  0  0  0
 10 40  1  0  0  0  0
 11 12  2  0  0  0  0
 11 46  1  0  0  0  0
 12 13  1  0  0  0  0
 12 41  1  0  0  0  0
 13 24  2  0  0  0  0
 13 42  1  0  0  0  0
 14 15  2  0  0  0  0
 15 16  1  0  0  0  0
 15 17  1  0  0  0  0
 17 18  1  0  0  0  0
 17 21  2  0  0  0  0
 19 20  1  0  0  0  0
 19 21  1  0  0  0  0
 21 22  1  0  0  0  0
 23 24  1  0  0  0  0
 23 43  1  0  0  0  0
 24 25  1  0  0  0  0
 25 44  1  0  0  0  0
 45 46  2  0  0  0  0
 46 47  1  0  0  0  0
 47 48  1  0  0  0  0
 47 49  1  0  0  0  0
M  END
$$$$
17
  MOE2020           3D

 45 48  0  0  0  0  0  0  0  0999 V2000
    1.3900   29.1080    6.7940 C   0  0  0  0  0  0  0  0  0  0  0  0
   -1.6910   31.9130    8.0790 C   0  0  0  0  0  0  0  0  0  0  0  0
   -0.7440   26.3750    8.8320 C   0  0  0  0  0  0  0  0  0  0  0  0
   -1.3140   25.5570    9.9910 C   0  0  0  0  0  0  0  0  0  0  0  0
   -1.1210   24.0590    9.6850 C   0  0  0  0  0  0  0  0  0  0  0  0
   -1.5820   23.1800   10.8500 C   0  0  0  0  0  0  0  0  0  0  0  0
   -0.8550   23.5460   12.1490 C   0  0  0  0  0  0  0  0  0  0  0  0
   -1.0780   25.0280   12.4860 C   0  0  0  0  0  0  0  0  0  0  0  0
   -0.6320   25.9350   11.3270 C   0  0  0  0  0  0  0  0  0  0  0  0
    4.6900   25.7130    5.8380 C   0  0  0  0  0  0  0  0  0  0  0  0
    4.6670   25.1400    7.1230 C   0  0  0  0  0  0  0  0  0  0  0  0
    3.9500   25.7660    8.1580 C   0  0  0  0  0  0  0  0  0  0  0  0
    3.2460   26.9560    7.8980 C   0  0  0  0  0  0  0  0  0  0  0  0
    0.6300   28.2310    7.4510 N   0  0  0  0  0  0  0  0  0  0  0  0
   -0.4900   28.6250    8.0920 C   0  0  0  0  0  0  0  0  0  0  0  0
   -1.1800   27.7320    8.8830 O   0  0  0  0  0  0  0  0  0  0  0  0
   -0.8660   29.9820    8.0000 C   0  0  0  0  0  0  0  0  0  0  0  0
   -1.9250   30.7130    8.5210 N   0  0  0  0  0  0  0  0  0  0  0  0
   -0.5540   32.0460    7.3310 N   0  0  0  0  0  0  0  0  0  0  0  0
   -0.1780   32.8770    6.8840 H   0  0  0  0  0  0  0  0  0  0  0  0
   -0.0250   30.7860    7.2610 C   0  0  0  0  0  0  0  0  0  0  0  0
    1.1170   30.4050    6.6110 N   0  0  0  0  0  0  0  0  0  0  0  0
    2.5830   28.6810    6.3360 N   0  0  0  0  0  0  0  0  0  0  0  0
    3.2360   27.5250    6.6030 C   0  0  0  0  0  0  0  0  0  0  0  0
    3.9870   26.9070    5.5820 C   0  0  0  0  0  0  0  0  0  0  0  0
   -2.3540   32.7340    8.2870 H   0  0  0  0  0  0  0  0  0  0  0  0
    0.3420   26.2810    8.8880 H   0  0  0  0  0  0  0  0  0  0  0  0
   -1.0530   25.9540    7.8740 H   0  0  0  0  0  0  0  0  0  0  0  0
   -2.3850   25.7540   10.0700 H   0  0  0  0  0  0  0  0  0  0  0  0
   -1.6740   23.7900    8.7850 H   0  0  0  0  0  0  0  0  0  0  0  0
   -0.0710   23.8530    9.4740 H   0  0  0  0  0  0  0  0  0  0  0  0
   -2.6490   23.3290   10.9950 H   0  0  0  0  0  0  0  0  0  0  0  0
   -1.4340   22.1250   10.6150 H   0  0  0  0  0  0  0  0  0  0  0  0
   -1.2180   22.9240   12.9680 H   0  0  0  0  0  0  0  0  0  0  0  0
    0.2130   23.3450   12.0500 H   0  0  0  0  0  0  0  0  0  0  0  0
   -2.1340   25.2020   12.7000 H   0  0  0  0  0  0  0  0  0  0  0  0
   -0.5350   25.2900   13.3930 H   0  0  0  0  0  0  0  0  0  0  0  0
    0.4520   25.8640   11.2220 H   0  0  0  0  0  0  0  0  0  0  0  0
   -0.8460   26.9770   11.5730 H   0  0  0  0  0  0  0  0  0  0  0  0
    5.2550   25.2430    5.0480 H   0  0  0  0  0  0  0  0  0  0  0  0
    5.2160   24.2330    7.3220 H   0  0  0  0  0  0  0  0  0  0  0  0
    2.7080   27.4240    8.7080 H   0  0  0  0  0  0  0  0  0  0  0  0
    3.0170   29.2660    5.6330 H   0  0  0  0  0  0  0  0  0  0  0  0
    4.0230   27.3390    4.5930 H   0  0  0  0  0  0  0  0  0  0  0  0
    3.9330   25.0200    9.8940 Br  0  0  0  0  0  0  0  0  0  0  0  0
  1 14  1  0  0  0  0
  1 22  2  0  0  0  0
  1 23  1  0  0  0  0
  2 18  2  0  0  0  0
  2 19  1  0  0  0  0
  2 26  1  0  0  0  0
  3  4  1  0  0  0  0
  3 16  1  0  0  0  0
  3 27  1  0  0  0  0
  3 28  1  0  0  0  0
  4  5  1  0  0  0  0
  4  9  1  0  0  0  0
  4 29  1  0  0  0  0
  5  6  1  0  0  0  0
  5 30  1  0  0  0  0
  5 31  1  0  0  0  0
  6  7  1  0  0  0  0
  6 32  1  0  0  0  0
  6 33  1  0  0  0  0
  7  8  1  0  0  0  0
  7 34  1  0  0  0  0
  7 35  1  0  0  0  0
  8  9  1  0  0  0  0
  8 36  1  0  0  0  0
  8 37  1  0  0  0  0
  9 38  1  0  0  0  0
  9 39  1  0  0  0  0
 10 11  1  0  0  0  0
 10 25  2  0  0  0  0
 10 40  1  0  0  0  0
 11 12  2  0  0  0  0
 11 41  1  0  0  0  0
 12 13  1  0  0  0  0
 12 45  1  0  0  0  0
 13 24  2  0  0  0  0
 13 42  1  0  0  0  0
 14 15  2  0  0  0  0
 15 16  1  0  0  0  0
 15 17  1  0  0  0  0
 17 18  1  0  0  0  0
 17 21  2  0  0  0  0
 19 20  1  0  0  0  0
 19 21  1  0  0  0  0
 21 22  1  0  0  0  0
 23 24  1  0  0  0  0
 23 43  1  0  0  0  0
 24 25  1  0  0  0  0
 25 44  1  0  0  0  0
M  END
$$$$
20
  MOE2020           3D

 49 52  0  0  0  0  0  0  0  0999 V2000
    1.3900   29.1080    6.7940 C   0  0  0  0  0  0  0  0  0  0  0  0
   -1.6910   31.9130    8.0790 C   0  0  0  0  0  0  0  0  0  0  0  0
   -0.7440   26.3750    8.8320 C   0  0  0  0  0  0  0  0  0  0  0  0
   -1.3140   25.5570    9.9910 C   0  0  0  0  0  0  0  0  0  0  0  0
   -1.1210   24.0590    9.6850 C   0  0  0  0  0  0  0  0  0  0  0  0
   -1.5820   23.1800   10.8500 C   0  0  0  0  0  0  0  0  0  0  0  0
   -0.8550   23.5460   12.1490 C   0  0  0  0  0  0  0  0  0  0  0  0
   -1.0780   25.0280   12.4860 C   0  0  0  0  0  0  0  0  0  0  0  0
   -0.6320   25.9350   11.3270 C   0  0  0  0  0  0  0  0  0  0  0  0
    4.6900   25.7130    5.8380 C   0  0  0  0  0  0  0  0  0  0  0  0
    4.6670   25.1400    7.1230 C   0  0  0  0  0  0  0  0  0  0  0  0
    3.9500   25.7660    8.1580 C   0  0  0  0  0  0  0  0  0  0  0  0
    3.2460   26.9560    7.8980 C   0  0  0  0  0  0  0  0  0  0  0  0
    0.6300   28.2310    7.4510 N   0  0  0  0  0  0  0  0  0  0  0  0
   -0.4900   28.6250    8.0920 C   0  0  0  0  0  0  0  0  0  0  0  0
   -1.1800   27.7320    8.8830 O   0  0  0  0  0  0  0  0  0  0  0  0
   -0.8660   29.9820    8.0000 C   0  0  0  0  0  0  0  0  0  0  0  0
   -1.9250   30.7130    8.5210 N   0  0  0  0  0  0  0  0  0  0  0  0
   -0.5540   32.0460    7.3310 N   0  0  0  0  0  0  0  0  0  0  0  0
   -0.1780   32.8770    6.8840 H   0  0  0  0  0  0  0  0  0  0  0  0
   -0.0250   30.7860    7.2610 C   0  0  0  0  0  0  0  0  0  0  0  0
    1.1170   30.4050    6.6110 N   0  0  0  0  0  0  0  0  0  0  0  0
    2.5830   28.6810    6.3360 N   0  0  0  0  0  0  0  0  0  0  0  0
    3.2360   27.5250    6.6030 C   0  0  0  0  0  0  0  0  0  0  0  0
    3.9870   26.9070    5.5820 C   0  0  0  0  0  0  0  0  0  0  0  0
   -2.3540   32.7340    8.2870 H   0  0  0  0  0  0  0  0  0  0  0  0
    0.3420   26.2810    8.8880 H   0  0  0  0  0  0  0  0  0  0  0  0
   -1.0530   25.9540    7.8740 H   0  0  0  0  0  0  0  0  0  0  0  0
   -2.3850   25.7540   10.0700 H   0  0  0  0  0  0  0  0  0  0  0  0
   -1.6740   23.7900    8.7850 H   0  0  0  0  0  0  0  0  0  0  0  0
   -0.0710   23.8530    9.4740 H   0  0  0  0  0  0  0  0  0  0  0  0
   -2.6490   23.3290   10.9950 H   0  0  0  0  0  0  0  0  0  0  0  0
   -1.4340   22.1250   10.6150 H   0  0  0  0  0  0  0  0  0  0  0  0
   -1.2180   22.9240   12.9680 H   0  0  0  0  0  0  0  0  0  0  0  0
    0.2130   23.3450   12.0500 H   0  0  0  0  0  0  0  0  0  0  0  0
   -2.1340   25.2020   12.7000 H   0  0  0  0  0  0  0  0  0  0  0  0
   -0.5350   25.2900   13.3930 H   0  0  0  0  0  0  0  0  0  0  0  0
    0.4520   25.8640   11.2220 H   0  0  0  0  0  0  0  0  0  0  0  0
   -0.8460   26.9770   11.5730 H   0  0  0  0  0  0  0  0  0  0  0  0
    5.2160   24.2330    7.3220 H   0  0  0  0  0  0  0  0  0  0  0  0
    3.9400   25.3400    9.1500 H   0  0  0  0  0  0  0  0  0  0  0  0
    2.7080   27.4240    8.7080 H   0  0  0  0  0  0  0  0  0  0  0  0
    3.0170   29.2660    5.6330 H   0  0  0  0  0  0  0  0  0  0  0  0
    4.0230   27.3390    4.5930 H   0  0  0  0  0  0  0  0  0  0  0  0
    5.4870   25.0500    4.7240 C   0  0  0  0  0  0  0  0  0  0  0  0
    5.3630   25.6590    3.8280 H   0  0  0  0  0  0  0  0  0  0  0  0
    6.5290   25.0170    5.0430 H   0  0  0  0  0  0  0  0  0  0  0  0
    4.9610   23.7540    4.5430 O   0  0  0  0  0  0  0  0  0  0  0  0
    4.0310   23.8700    4.3480 H   0  0  0  0  0  0  0  0  0  0  0  0
  1 14  1  0  0  0  0
  1 22  2  0  0  0  0
  1 23  1  0  0  0  0
  2 18  2  0  0  0  0
  2 19  1  0  0  0  0
  2 26  1  0  0  0  0
  3  4  1  0  0  0  0
  3 16  1  0  0  0  0
  3 27  1  0  0  0  0
  3 28  1  0  0  0  0
  4  5  1  0  0  0  0
  4  9  1  0  0  0  0
  4 29  1  0  0  0  0
  5  6  1  0  0  0  0
  5 30  1  0  0  0  0
  5 31  1  0  0  0  0
  6  7  1  0  0  0  0
  6 32  1  0  0  0  0
  6 33  1  0  0  0  0
  7  8  1  0  0  0  0
  7 34  1  0  0  0  0
  7 35  1  0  0  0  0
  8  9  1  0  0  0  0
  8 36  1  0  0  0  0
  8 37  1  0  0  0  0
  9 38  1  0  0  0  0
  9 39  1  0  0  0  0
 10 11  1  0  0  0  0
 10 25  2  0  0  0  0
 10 45  1  0  0  0  0
 11 12  2  0  0  0  0
 11 40  1  0  0  0  0
 12 13  1  0  0  0  0
 12 41  1  0  0  0  0
 13 24  2  0  0  0  0
 13 42  1  0  0  0  0
 14 15  2  0  0  0  0
 15 16  1  0  0  0  0
 15 17  1  0  0  0  0
 17 18  1  0  0  0  0
 17 21  2  0  0  0  0
 19 20  1  0  0  0  0
 19 21  1  0  0  0  0
 21 22  1  0  0  0  0
 23 24  1  0  0  0  0
 23 43  1  0  0  0  0
 24 25  1  0  0  0  0
 25 44  1  0  0  0  0
 45 46  1  0  0  0  0
 45 47  1  0  0  0  0
 45 48  1  0  0  0  0
 48 49  1  0  0  0  0
M  END
$$$$
21
  MOE2020           3D

 49 52  0  0  0  0  0  0  0  0999 V2000
    1.3900   29.1080    6.7940 C   0  0  0  0  0  0  0  0  0  0  0  0
   -1.6910   31.9130    8.0790 C   0  0  0  0  0  0  0  0  0  0  0  0
   -0.7440   26.3750    8.8320 C   0  0  0  0  0  0  0  0  0  0  0  0
   -1.3140   25.5570    9.9910 C   0  0  0  0  0  0  0  0  0  0  0  0
   -1.1210   24.0590    9.6850 C   0  0  0  0  0  0  0  0  0  0  0  0
   -1.5820   23.1800   10.8500 C   0  0  0  0  0  0  0  0  0  0  0  0
   -0.8550   23.5460   12.1490 C   0  0  0  0  0  0  0  0  0  0  0  0
   -1.0780   25.0280   12.4860 C   0  0  0  0  0  0  0  0  0  0  0  0
   -0.6320   25.9350   11.3270 C   0  0  0  0  0  0  0  0  0  0  0  0
    4.6900   25.7130    5.8380 C   0  0  0  0  0  0  0  0  0  0  0  0
    4.6670   25.1400    7.1230 C   0  0  0  0  0  0  0  0  0  0  0  0
    3.9500   25.7660    8.1580 C   0  0  0  0  0  0  0  0  0  0  0  0
    3.2460   26.9560    7.8980 C   0  0  0  0  0  0  0  0  0  0  0  0
    0.6300   28.2310    7.4510 N   0  0  0  0  0  0  0  0  0  0  0  0
   -0.4900   28.6250    8.0920 C   0  0  0  0  0  0  0  0  0  0  0  0
   -1.1800   27.7320    8.8830 O   0  0  0  0  0  0  0  0  0  0  0  0
   -0.8660   29.9820    8.0000 C   0  0  0  0  0  0  0  0  0  0  0  0
   -1.9250   30.7130    8.5210 N   0  0  0  0  0  0  0  0  0  0  0  0
   -0.5540   32.0460    7.3310 N   0  0  0  0  0  0  0  0  0  0  0  0
   -0.1780   32.8770    6.8840 H   0  0  0  0  0  0  0  0  0  0  0  0
   -0.0250   30.7860    7.2610 C   0  0  0  0  0  0  0  0  0  0  0  0
    1.1170   30.4050    6.6110 N   0  0  0  0  0  0  0  0  0  0  0  0
    2.5830   28.6810    6.3360 N   0  0  0  0  0  0  0  0  0  0  0  0
    3.2360   27.5250    6.6030 C   0  0  0  0  0  0  0  0  0  0  0  0
    3.9870   26.9070    5.5820 C   0  0  0  0  0  0  0  0  0  0  0  0
   -2.3540   32.7340    8.2870 H   0  0  0  0  0  0  0  0  0  0  0  0
    0.3420   26.2810    8.8880 H   0  0  0  0  0  0  0  0  0  0  0  0
   -1.0530   25.9540    7.8740 H   0  0  0  0  0  0  0  0  0  0  0  0
   -2.3850   25.7540   10.0700 H   0  0  0  0  0  0  0  0  0  0  0  0
   -1.6740   23.7900    8.7850 H   0  0  0  0  0  0  0  0  0  0  0  0
   -0.0710   23.8530    9.4740 H   0  0  0  0  0  0  0  0  0  0  0  0
   -2.6490   23.3290   10.9950 H   0  0  0  0  0  0  0  0  0  0  0  0
   -1.4340   22.1250   10.6150 H   0  0  0  0  0  0  0  0  0  0  0  0
   -1.2180   22.9240   12.9680 H   0  0  0  0  0  0  0  0  0  0  0  0
    0.2130   23.3450   12.0500 H   0  0  0  0  0  0  0  0  0  0  0  0
   -2.1340   25.2020   12.7000 H   0  0  0  0  0  0  0  0  0  0  0  0
   -0.5350   25.2900   13.3930 H   0  0  0  0  0  0  0  0  0  0  0  0
    0.4520   25.8640   11.2220 H   0  0  0  0  0  0  0  0  0  0  0  0
   -0.8460   26.9770   11.5730 H   0  0  0  0  0  0  0  0  0  0  0  0
    5.2550   25.2430    5.0480 H   0  0  0  0  0  0  0  0  0  0  0  0
    5.2160   24.2330    7.3220 H   0  0  0  0  0  0  0  0  0  0  0  0
    2.7080   27.4240    8.7080 H   0  0  0  0  0  0  0  0  0  0  0  0
    3.0170   29.2660    5.6330 H   0  0  0  0  0  0  0  0  0  0  0  0
    4.0230   27.3390    4.5930 H   0  0  0  0  0  0  0  0  0  0  0  0
    3.9380   25.2280    9.4110 O   0  0  0  0  0  0  0  0  0  0  0  0
    3.1570   26.0270   10.2720 C   0  0  0  0  0  0  0  0  0  0  0  0
    3.1540   25.5780   11.2960 H   0  0  0  0  0  0  0  0  0  0  0  0
    3.5900   27.0580   10.3180 H   0  0  0  0  0  0  0  0  0  0  0  0
    2.1090   26.0790    9.8840 H   0  0  0  0  0  0  0  0  0  0  0  0
  1 14  1  0  0  0  0
  1 22  2  0  0  0  0
  1 23  1  0  0  0  0
  2 18  2  0  0  0  0
  2 19  1  0  0  0  0
  2 26  1  0  0  0  0
  3  4  1  0  0  0  0
  3 16  1  0  0  0  0
  3 27  1  0  0  0  0
  3 28  1  0  0  0  0
  4  5  1  0  0  0  0
  4  9  1  0  0  0  0
  4 29  1  0  0  0  0
  5  6  1  0  0  0  0
  5 30  1  0  0  0  0
  5 31  1  0  0  0  0
  6  7  1  0  0  0  0
  6 32  1  0  0  0  0
  6 33  1  0  0  0  0
  7  8  1  0  0  0  0
  7 34  1  0  0  0  0
  7 35  1  0  0  0  0
  8  9  1  0  0  0  0
  8 36  1  0  0  0  0
  8 37  1  0  0  0  0
  9 38  1  0  0  0  0
  9 39  1  0  0  0  0
 10 11  1  0  0  0  0
 10 25  2  0  0  0  0
 10 40  1  0  0  0  0
 11 12  2  0  0  0  0
 11 41  1  0  0  0  0
 12 13  1  0  0  0  0
 12 45  1  0  0  0  0
 13 24  2  0  0  0  0
 13 42  1  0  0  0  0
 14 15  2  0  0  0  0
 15 16  1  0  0  0  0
 15 17  1  0  0  0  0
 17 18  1  0  0  0  0
 17 21  2  0  0  0  0
 19 20  1  0  0  0  0
 19 21  1  0  0  0  0
 21 22  1  0  0  0  0
 23 24  1  0  0  0  0
 23 43  1  0  0  0  0
 24 25  1  0  0  0  0
 25 44  1  0  0  0  0
 45 46  1  0  0  0  0
 46 47  1  0  0  0  0
 46 48  1  0  0  0  0
 46 49  1  0  0  0  0
M  END
$$$$
22
  MOE2020           3D

 49 52  0  0  0  0  0  0  0  0999 V2000
    1.3900   29.1080    6.7940 C   0  0  0  0  0  0  0  0  0  0  0  0
   -1.6910   31.9130    8.0790 C   0  0  0  0  0  0  0  0  0  0  0  0
   -0.7440   26.3750    8.8320 C   0  0  0  0  0  0  0  0  0  0  0  0
   -1.3140   25.5570    9.9910 C   0  0  0  0  0  0  0  0  0  0  0  0
   -1.1210   24.0590    9.6850 C   0  0  0  0  0  0  0  0  0  0  0  0
   -1.5820   23.1800   10.8500 C   0  0  0  0  0  0  0  0  0  0  0  0
   -0.8550   23.5460   12.1490 C   0  0  0  0  0  0  0  0  0  0  0  0
   -1.0780   25.0280   12.4860 C   0  0  0  0  0  0  0  0  0  0  0  0
   -0.6320   25.9350   11.3270 C   0  0  0  0  0  0  0  0  0  0  0  0
    4.6900   25.7130    5.8380 C   0  0  0  0  0  0  0  0  0  0  0  0
    4.6670   25.1400    7.1230 C   0  0  0  0  0  0  0  0  0  0  0  0
    3.9500   25.7660    8.1580 C   0  0  0  0  0  0  0  0  0  0  0  0
    3.2460   26.9560    7.8980 C   0  0  0  0  0  0  0  0  0  0  0  0
    0.6300   28.2310    7.4510 N   0  0  0  0  0  0  0  0  0  0  0  0
   -0.4900   28.6250    8.0920 C   0  0  0  0  0  0  0  0  0  0  0  0
   -1.1800   27.7320    8.8830 O   0  0  0  0  0  0  0  0  0  0  0  0
   -0.8660   29.9820    8.0000 C   0  0  0  0  0  0  0  0  0  0  0  0
   -1.9250   30.7130    8.5210 N   0  0  0  0  0  0  0  0  0  0  0  0
   -0.5540   32.0460    7.3310 N   0  0  0  0  0  0  0  0  0  0  0  0
   -0.1780   32.8770    6.8840 H   0  0  0  0  0  0  0  0  0  0  0  0
   -0.0250   30.7860    7.2610 C   0  0  0  0  0  0  0  0  0  0  0  0
    1.1170   30.4050    6.6110 N   0  0  0  0  0  0  0  0  0  0  0  0
    2.5830   28.6810    6.3360 N   0  0  0  0  0  0  0  0  0  0  0  0
    3.2360   27.5250    6.6030 C   0  0  0  0  0  0  0  0  0  0  0  0
    3.9870   26.9070    5.5820 C   0  0  0  0  0  0  0  0  0  0  0  0
   -2.3540   32.7340    8.2870 H   0  0  0  0  0  0  0  0  0  0  0  0
    0.3420   26.2810    8.8880 H   0  0  0  0  0  0  0  0  0  0  0  0
   -1.0530   25.9540    7.8740 H   0  0  0  0  0  0  0  0  0  0  0  0
   -2.3850   25.7540   10.0700 H   0  0  0  0  0  0  0  0  0  0  0  0
   -1.6740   23.7900    8.7850 H   0  0  0  0  0  0  0  0  0  0  0  0
   -0.0710   23.8530    9.4740 H   0  0  0  0  0  0  0  0  0  0  0  0
   -2.6490   23.3290   10.9950 H   0  0  0  0  0  0  0  0  0  0  0  0
   -1.4340   22.1250   10.6150 H   0  0  0  0  0  0  0  0  0  0  0  0
   -1.2180   22.9240   12.9680 H   0  0  0  0  0  0  0  0  0  0  0  0
    0.2130   23.3450   12.0500 H   0  0  0  0  0  0  0  0  0  0  0  0
   -2.1340   25.2020   12.7000 H   0  0  0  0  0  0  0  0  0  0  0  0
   -0.5350   25.2900   13.3930 H   0  0  0  0  0  0  0  0  0  0  0  0
    0.4520   25.8640   11.2220 H   0  0  0  0  0  0  0  0  0  0  0  0
   -0.8460   26.9770   11.5730 H   0  0  0  0  0  0  0  0  0  0  0  0
    5.2550   25.2430    5.0480 H   0  0  0  0  0  0  0  0  0  0  0  0
    5.2160   24.2330    7.3220 H   0  0  0  0  0  0  0  0  0  0  0  0
    2.7080   27.4240    8.7080 H   0  0  0  0  0  0  0  0  0  0  0  0
    3.0170   29.2660    5.6330 H   0  0  0  0  0  0  0  0  0  0  0  0
    4.0230   27.3390    4.5930 H   0  0  0  0  0  0  0  0  0  0  0  0
    3.9350   25.0870    9.7380 S   0  0  0  0  0  0  0  0  0  0  0  0
    2.9330   26.1130   10.8430 C   0  0  0  0  0  0  0  0  0  0  0  0
    2.9290   25.6640   11.8680 H   0  0  0  0  0  0  0  0  0  0  0  0
    3.3660   27.1440   10.8890 H   0  0  0  0  0  0  0  0  0  0  0  0
    1.8850   26.1660   10.4550 H   0  0  0  0  0  0  0  0  0  0  0  0
  1 14  1  0  0  0  0
  1 22  2  0  0  0  0
  1 23  1  0  0  0  0
  2 18  2  0  0  0  0
  2 19  1  0  0  0  0
  2 26  1  0  0  0  0
  3  4  1  0  0  0  0
  3 16  1  0  0  0  0
  3 27  1  0  0  0  0
  3 28  1  0  0  0  0
  4  5  1  0  0  0  0
  4  9  1  0  0  0  0
  4 29  1  0  0  0  0
  5  6  1  0  0  0  0
  5 30  1  0  0  0  0
  5 31  1  0  0  0  0
  6  7  1  0  0  0  0
  6 32  1  0  0  0  0
  6 33  1  0  0  0  0
  7  8  1  0  0  0  0
  7 34  1  0  0  0  0
  7 35  1  0  0  0  0
  8  9  1  0  0  0  0
  8 36  1  0  0  0  0
  8 37  1  0  0  0  0
  9 38  1  0  0  0  0
  9 39  1  0  0  0  0
 10 11  1  0  0  0  0
 10 25  2  0  0  0  0
 10 40  1  0  0  0  0
 11 12  2  0  0  0  0
 11 41  1  0  0  0  0
 12 13  1  0  0  0  0
 12 45  1  0  0  0  0
 13 24  2  0  0  0  0
 13 42  1  0  0  0  0
 14 15  2  0  0  0  0
 15 16  1  0  0  0  0
 15 17  1  0  0  0  0
 17 18  1  0  0  0  0
 17 21  2  0  0  0  0
 19 20  1  0  0  0  0
 19 21  1  0  0  0  0
 21 22  1  0  0  0  0
 23 24  1  0  0  0  0
 23 43  1  0  0  0  0
 24 25  1  0  0  0  0
 25 44  1  0  0  0  0
 45 46  1  0  0  0  0
 46 47  1  0  0  0  0
 46 48  1  0  0  0  0
 46 49  1  0  0  0  0
M  END
$$$$
26
  MOE2020           3D

 49 52  0  0  0  0  0  0  0  0999 V2000
    1.3900   29.1080    6.7940 C   0  0  0  0  0  0  0  0  0  0  0  0
   -1.6910   31.9130    8.0790 C   0  0  0  0  0  0  0  0  0  0  0  0
   -0.7440   26.3750    8.8320 C   0  0  0  0  0  0  0  0  0  0  0  0
   -1.3140   25.5570    9.9910 C   0  0  0  0  0  0  0  0  0  0  0  0
   -1.1210   24.0590    9.6850 C   0  0  0  0  0  0  0  0  0  0  0  0
   -1.5820   23.1800   10.8500 C   0  0  0  0  0  0  0  0  0  0  0  0
   -0.8550   23.5460   12.1490 C   0  0  0  0  0  0  0  0  0  0  0  0
   -1.0780   25.0280   12.4860 C   0  0  0  0  0  0  0  0  0  0  0  0
   -0.6320   25.9350   11.3270 C   0  0  0  0  0  0  0  0  0  0  0  0
    4.6900   25.7130    5.8380 C   0  0  0  0  0  0  0  0  0  0  0  0
    4.6670   25.1400    7.1230 C   0  0  0  0  0  0  0  0  0  0  0  0
    3.9500   25.7660    8.1580 C   0  0  0  0  0  0  0  0  0  0  0  0
    3.2460   26.9560    7.8980 C   0  0  0  0  0  0  0  0  0  0  0  0
    0.6300   28.2310    7.4510 N   0  0  0  0  0  0  0  0  0  0  0  0
   -0.4900   28.6250    8.0920 C   0  0  0  0  0  0  0  0  0  0  0  0
   -1.1800   27.7320    8.8830 O   0  0  0  0  0  0  0  0  0  0  0  0
   -0.8660   29.9820    8.0000 C   0  0  0  0  0  0  0  0  0  0  0  0
   -1.9250   30.7130    8.5210 N   0  0  0  0  0  0  0  0  0  0  0  0
   -0.5540   32.0460    7.3310 N   0  0  0  0  0  0  0  0  0  0  0  0
   -0.1780   32.8770    6.8840 H   0  0  0  0  0  0  0  0  0  0  0  0
   -0.0250   30.7860    7.2610 C   0  0  0  0  0  0  0  0  0  0  0  0
    1.1170   30.4050    6.6110 N   0  0  0  0  0  0  0  0  0  0  0  0
    2.5830   28.6810    6.3360 N   0  0  0  0  0  0  0  0  0  0  0  0
    3.2360   27.5250    6.6030 C   0  0  0  0  0  0  0  0  0  0  0  0
    3.9870   26.9070    5.5820 C   0  0  0  0  0  0  0  0  0  0  0  0
   -2.3540   32.7340    8.2870 H   0  0  0  0  0  0  0  0  0  0  0  0
    0.3420   26.2810    8.8880 H   0  0  0  0  0  0  0  0  0  0  0  0
   -1.0530   25.9540    7.8740 H   0  0  0  0  0  0  0  0  0  0  0  0
   -2.3850   25.7540   10.0700 H   0  0  0  0  0  0  0  0  0  0  0  0
   -1.6740   23.7900    8.7850 H   0  0  0  0  0  0  0  0  0  0  0  0
   -0.0710   23.8530    9.4740 H   0  0  0  0  0  0  0  0  0  0  0  0
   -2.6490   23.3290   10.9950 H   0  0  0  0  0  0  0  0  0  0  0  0
   -1.4340   22.1250   10.6150 H   0  0  0  0  0  0  0  0  0  0  0  0
   -1.2180   22.9240   12.9680 H   0  0  0  0  0  0  0  0  0  0  0  0
    0.2130   23.3450   12.0500 H   0  0  0  0  0  0  0  0  0  0  0  0
   -2.1340   25.2020   12.7000 H   0  0  0  0  0  0  0  0  0  0  0  0
   -0.5350   25.2900   13.3930 H   0  0  0  0  0  0  0  0  0  0  0  0
    0.4520   25.8640   11.2220 H   0  0  0  0  0  0  0  0  0  0  0  0
   -0.8460   26.9770   11.5730 H   0  0  0  0  0  0  0  0  0  0  0  0
    5.2550   25.2430    5.0480 H   0  0  0  0  0  0  0  0  0  0  0  0
    3.9400   25.3400    9.1500 H   0  0  0  0  0  0  0  0  0  0  0  0
    2.7080   27.4240    8.7080 H   0  0  0  0  0  0  0  0  0  0  0  0
    3.0170   29.2660    5.6330 H   0  0  0  0  0  0  0  0  0  0  0  0
    4.0230   27.3390    4.5930 H   0  0  0  0  0  0  0  0  0  0  0  0
    5.3620   23.9930    7.3750 O   0  0  0  0  0  0  0  0  0  0  0  0
    5.1900   23.6110    8.7210 C   0  0  0  0  0  0  0  0  0  0  0  0
    5.7630   22.6700    8.9180 H   0  0  0  0  0  0  0  0  0  0  0  0
    5.5660   24.4240    9.3910 H   0  0  0  0  0  0  0  0  0  0  0  0
    4.1030   23.4340    8.9230 H   0  0  0  0  0  0  0  0  0  0  0  0
  1 14  1  0  0  0  0
  1 22  2  0  0  0  0
  1 23  1  0  0  0  0
  2 18  2  0  0  0  0
  2 19  1  0  0  0  0
  2 26  1  0  0  0  0
  3  4  1  0  0  0  0
  3 16  1  0  0  0  0
  3 27  1  0  0  0  0
  3 28  1  0  0  0  0
  4  5  1  0  0  0  0
  4  9  1  0  0  0  0
  4 29  1  0  0  0  0
  5  6  1  0  0  0  0
  5 30  1  0  0  0  0
  5 31  1  0  0  0  0
  6  7  1  0  0  0  0
  6 32  1  0  0  0  0
  6 33  1  0  0  0  0
  7  8  1  0  0  0  0
  7 34  1  0  0  0  0
  7 35  1  0  0  0  0
  8  9  1  0  0  0  0
  8 36  1  0  0  0  0
  8 37  1  0  0  0  0
  9 38  1  0  0  0  0
  9 39  1  0  0  0  0
 10 11  1  0  0  0  0
 10 25  2  0  0  0  0
 10 40  1  0  0  0  0
 11 12  2  0  0  0  0
 11 45  1  0  0  0  0
 12 13  1  0  0  0  0
 12 41  1  0  0  0  0
 13 24  2  0  0  0  0
 13 42  1  0  0  0  0
 14 15  2  0  0  0  0
 15 16  1  0  0  0  0
 15 17  1  0  0  0  0
 17 18  1  0  0  0  0
 17 21  2  0  0  0  0
 19 20  1  0  0  0  0
 19 21  1  0  0  0  0
 21 22  1  0  0  0  0
 23 24  1  0  0  0  0
 23 43  1  0  0  0  0
 24 25  1  0  0  0  0
 25 44  1  0  0  0  0
 45 46  1  0  0  0  0
 46 47  1  0  0  0  0
 46 48  1  0  0  0  0
 46 49  1  0  0  0  0
M  END
$$$$
28
  MOE2020           3D

 53 56  0  0  0  0  0  0  0  0999 V2000
    1.3900   29.1080    6.7940 C   0  0  0  0  0  0  0  0  0  0  0  0
   -1.6910   31.9130    8.0790 C   0  0  0  0  0  0  0  0  0  0  0  0
   -0.7440   26.3750    8.8320 C   0  0  0  0  0  0  0  0  0  0  0  0
   -1.3140   25.5570    9.9910 C   0  0  0  0  0  0  0  0  0  0  0  0
   -1.1210   24.0590    9.6850 C   0  0  0  0  0  0  0  0  0  0  0  0
   -1.5820   23.1800   10.8500 C   0  0  0  0  0  0  0  0  0  0  0  0
   -0.8550   23.5460   12.1490 C   0  0  0  0  0  0  0  0  0  0  0  0
   -1.0780   25.0280   12.4860 C   0  0  0  0  0  0  0  0  0  0  0  0
   -0.6320   25.9350   11.3270 C   0  0  0  0  0  0  0  0  0  0  0  0
    4.6900   25.7130    5.8380 C   0  0  0  0  0  0  0  0  0  0  0  0
    4.6670   25.1400    7.1230 C   0  0  0  0  0  0  0  0  0  0  0  0
    3.9500   25.7660    8.1580 C   0  0  0  0  0  0  0  0  0  0  0  0
    3.2460   26.9560    7.8980 C   0  0  0  0  0  0  0  0  0  0  0  0
    0.6300   28.2310    7.4510 N   0  0  0  0  0  0  0  0  0  0  0  0
   -0.4900   28.6250    8.0920 C   0  0  0  0  0  0  0  0  0  0  0  0
   -1.1800   27.7320    8.8830 O   0  0  0  0  0  0  0  0  0  0  0  0
   -0.8660   29.9820    8.0000 C   0  0  0  0  0  0  0  0  0  0  0  0
   -1.9250   30.7130    8.5210 N   0  0  0  0  0  0  0  0  0  0  0  0
   -0.5540   32.0460    7.3310 N   0  0  0  0  0  0  0  0  0  0  0  0
   -0.1780   32.8770    6.8840 H   0  0  0  0  0  0  0  0  0  0  0  0
   -0.0250   30.7860    7.2610 C   0  0  0  0  0  0  0  0  0  0  0  0
    1.1170   30.4050    6.6110 N   0  0  0  0  0  0  0  0  0  0  0  0
    2.5830   28.6810    6.3360 N   0  0  0  0  0  0  0  0  0  0  0  0
    3.2360   27.5250    6.6030 C   0  0  0  0  0  0  0  0  0  0  0  0
    3.9870   26.9070    5.5820 C   0  0  0  0  0  0  0  0  0  0  0  0
   -2.3540   32.7340    8.2870 H   0  0  0  0  0  0  0  0  0  0  0  0
    0.3420   26.2810    8.8880 H   0  0  0  0  0  0  0  0  0  0  0  0
   -1.0530   25.9540    7.8740 H   0  0  0  0  0  0  0  0  0  0  0  0
   -2.3850   25.7540   10.0700 H   0  0  0  0  0  0  0  0  0  0  0  0
   -1.6740   23.7900    8.7850 H   0  0  0  0  0  0  0  0  0  0  0  0
   -0.0710   23.8530    9.4740 H   0  0  0  0  0  0  0  0  0  0  0  0
   -2.6490   23.3290   10.9950 H   0  0  0  0  0  0  0  0  0  0  0  0
   -1.4340   22.1250   10.6150 H   0  0  0  0  0  0  0  0  0  0  0  0
   -1.2180   22.9240   12.9680 H   0  0  0  0  0  0  0  0  0  0  0  0
    0.2130   23.3450   12.0500 H   0  0  0  0  0  0  0  0  0  0  0  0
   -2.1340   25.2020   12.7000 H   0  0  0  0  0  0  0  0  0  0  0  0
   -0.5350   25.2900   13.3930 H   0  0  0  0  0  0  0  0  0  0  0  0
    0.4520   25.8640   11.2220 H   0  0  0  0  0  0  0  0  0  0  0  0
   -0.8460   26.9770   11.5730 H   0  0  0  0  0  0  0  0  0  0  0  0
    5.2550   25.2430    5.0480 H   0  0  0  0  0  0  0  0  0  0  0  0
    3.9400   25.3400    9.1500 H   0  0  0  0  0  0  0  0  0  0  0  0
    2.7080   27.4240    8.7080 H   0  0  0  0  0  0  0  0  0  0  0  0
    3.0170   29.2660    5.6330 H   0  0  0  0  0  0  0  0  0  0  0  0
    4.0230   27.3390    4.5930 H   0  0  0  0  0  0  0  0  0  0  0  0
    5.4310   23.8790    7.4000 S   0  0  0  0  0  0  0  0  0  0  0  0
    5.8110   23.2940    6.1200 O   0  0  0  0  0  0  0  0  0  0  0  0
    6.4230   24.1720    8.4270 O   0  0  0  0  0  0  0  0  0  0  0  0
    4.3520   22.7430    8.1190 N   0  0  0  0  0  0  0  0  0  0  0  0
    3.7950   22.1540    7.5180 H   0  0  0  0  0  0  0  0  0  0  0  0
    4.1630   22.7720    9.5550 C   0  0  0  0  0  0  0  0  0  0  0  0
    3.4520   21.9850    9.8060 H   0  0  0  0  0  0  0  0  0  0  0  0
    5.1350   22.5940   10.0150 H   0  0  0  0  0  0  0  0  0  0  0  0
    3.7740   23.7580    9.8120 H   0  0  0  0  0  0  0  0  0  0  0  0
  1 14  1  0  0  0  0
  1 22  2  0  0  0  0
  1 23  1  0  0  0  0
  2 18  2  0  0  0  0
  2 19  1  0  0  0  0
  2 26  1  0  0  0  0
  3  4  1  0  0  0  0
  3 16  1  0  0  0  0
  3 27  1  0  0  0  0
  3 28  1  0  0  0  0
  4  5  1  0  0  0  0
  4  9  1  0  0  0  0
  4 29  1  0  0  0  0
  5  6  1  0  0  0  0
  5 30  1  0  0  0  0
  5 31  1  0  0  0  0
  6  7  1  0  0  0  0
  6 32  1  0  0  0  0
  6 33  1  0  0  0  0
  7  8  1  0  0  0  0
  7 34  1  0  0  0  0
  7 35  1  0  0  0  0
  8  9  1  0  0  0  0
  8 36  1  0  0  0  0
  8 37  1  0  0  0  0
  9 38  1  0  0  0  0
  9 39  1  0  0  0  0
 10 11  1  0  0  0  0
 10 25  2  0  0  0  0
 10 40  1  0  0  0  0
 11 12  2  0  0  0  0
 11 45  1  0  0  0  0
 12 13  1  0  0  0  0
 12 41  1  0  0  0  0
 13 24  2  0  0  0  0
 13 42  1  0  0  0  0
 14 15  2  0  0  0  0
 15 16  1  0  0  0  0
 15 17  1  0  0  0  0
 17 18  1  0  0  0  0
 17 21  2  0  0  0  0
 19 20  1  0  0  0  0
 19 21  1  0  0  0  0
 21 22  1  0  0  0  0
 23 24  1  0  0  0  0
 23 43  1  0  0  0  0
 24 25  1  0  0  0  0
 25 44  1  0  0  0  0
 45 46  2  0  0  0  0
 45 47  2  0  0  0  0
 45 48  1  0  0  0  0
 48 49  1  0  0  0  0
 48 50  1  0  0  0  0
 50 51  1  0  0  0  0
 50 52  1  0  0  0  0
 50 53  1  0  0  0  0
M  END
$$$$
29
  MOE2020           3D

 56 59  0  0  0  0  0  0  0  0999 V2000
    1.3900   29.1080    6.7940 C   0  0  0  0  0  0  0  0  0  0  0  0
   -1.6910   31.9130    8.0790 C   0  0  0  0  0  0  0  0  0  0  0  0
   -0.7440   26.3750    8.8320 C   0  0  0  0  0  0  0  0  0  0  0  0
   -1.3140   25.5570    9.9910 C   0  0  0  0  0  0  0  0  0  0  0  0
   -1.1210   24.0590    9.6850 C   0  0  0  0  0  0  0  0  0  0  0  0
   -1.5820   23.1800   10.8500 C   0  0  0  0  0  0  0  0  0  0  0  0
   -0.8550   23.5460   12.1490 C   0  0  0  0  0  0  0  0  0  0  0  0
   -1.0780   25.0280   12.4860 C   0  0  0  0  0  0  0  0  0  0  0  0
   -0.6320   25.9350   11.3270 C   0  0  0  0  0  0  0  0  0  0  0  0
    4.6900   25.7130    5.8380 C   0  0  0  0  0  0  0  0  0  0  0  0
    4.6670   25.1400    7.1230 C   0  0  0  0  0  0  0  0  0  0  0  0
    3.9500   25.7660    8.1580 C   0  0  0  0  0  0  0  0  0  0  0  0
    3.2460   26.9560    7.8980 C   0  0  0  0  0  0  0  0  0  0  0  0
    0.6300   28.2310    7.4510 N   0  0  0  0  0  0  0  0  0  0  0  0
   -0.4900   28.6250    8.0920 C   0  0  0  0  0  0  0  0  0  0  0  0
   -1.1800   27.7320    8.8830 O   0  0  0  0  0  0  0  0  0  0  0  0
   -0.8660   29.9820    8.0000 C   0  0  0  0  0  0  0  0  0  0  0  0
   -1.9250   30.7130    8.5210 N   0  0  0  0  0  0  0  0  0  0  0  0
   -0.5540   32.0460    7.3310 N   0  0  0  0  0  0  0  0  0  0  0  0
   -0.1780   32.8770    6.8840 H   0  0  0  0  0  0  0  0  0  0  0  0
   -0.0250   30.7860    7.2610 C   0  0  0  0  0  0  0  0  0  0  0  0
    1.1170   30.4050    6.6110 N   0  0  0  0  0  0  0  0  0  0  0  0
    2.5830   28.6810    6.3360 N   0  0  0  0  0  0  0  0  0  0  0  0
    3.2360   27.5250    6.6030 C   0  0  0  0  0  0  0  0  0  0  0  0
    3.9870   26.9070    5.5820 C   0  0  0  0  0  0  0  0  0  0  0  0
   -2.3540   32.7340    8.2870 H   0  0  0  0  0  0  0  0  0  0  0  0
    0.3420   26.2810    8.8880 H   0  0  0  0  0  0  0  0  0  0  0  0
   -1.0530   25.9540    7.8740 H   0  0  0  0  0  0  0  0  0  0  0  0
   -2.3850   25.7540   10.0700 H   0  0  0  0  0  0  0  0  0  0  0  0
   -1.6740   23.7900    8.7850 H   0  0  0  0  0  0  0  0  0  0  0  0
   -0.0710   23.8530    9.4740 H   0  0  0  0  0  0  0  0  0  0  0  0
   -2.6490   23.3290   10.9950 H   0  0  0  0  0  0  0  0  0  0  0  0
   -1.4340   22.1250   10.6150 H   0  0  0  0  0  0  0  0  0  0  0  0
   -1.2180   22.9240   12.9680 H   0  0  0  0  0  0  0  0  0  0  0  0
    0.2130   23.3450   12.0500 H   0  0  0  0  0  0  0  0  0  0  0  0
   -2.1340   25.2020   12.7000 H   0  0  0  0  0  0  0  0  0  0  0  0
   -0.5350   25.2900   13.3930 H   0  0  0  0  0  0  0  0  0  0  0  0
    0.4520   25.8640   11.2220 H   0  0  0  0  0  0  0  0  0  0  0  0
   -0.8460   26.9770   11.5730 H   0  0  0  0  0  0  0  0  0  0  0  0
    5.2550   25.2430    5.0480 H   0  0  0  0  0  0  0  0  0  0  0  0
    3.9400   25.3400    9.1500 H   0  0  0  0  0  0  0  0  0  0  0  0
    2.7080   27.4240    8.7080 H   0  0  0  0  0  0  0  0  0  0  0  0
    3.0170   29.2660    5.6330 H   0  0  0  0  0  0  0  0  0  0  0  0
    4.0230   27.3390    4.5930 H   0  0  0  0  0  0  0  0  0  0  0  0
    5.4310   23.8790    7.4000 S   0  0  0  0  0  0  0  0  0  0  0  0
    5.8110   23.2940    6.1200 O   0  0  0  0  0  0  0  0  0  0  0  0
    6.4230   24.1720    8.4270 O   0  0  0  0  0  0  0  0  0  0  0  0
    4.4920   22.8910    8.0260 N   0  0  0  0  0  0  0  0  0  0  0  0
    3.8600   21.8740    7.2090 C   0  0  0  0  0  0  0  0  0  0  0  0
    4.1950   21.9880    6.1470 H   0  0  0  0  0  0  0  0  0  0  0  0
    4.1500   20.8610    7.5840 H   0  0  0  0  0  0  0  0  0  0  0  0
    2.7490   21.9890    7.2640 H   0  0  0  0  0  0  0  0  0  0  0  0
    4.2170   22.9520    9.4470 C   0  0  0  0  0  0  0  0  0  0  0  0
    3.4990   22.1400    9.7230 H   0  0  0  0  0  0  0  0  0  0  0  0
    5.1700   22.8180   10.0180 H   0  0  0  0  0  0  0  0  0  0  0  0
    3.7690   23.9460    9.6970 H   0  0  0  0  0  0  0  0  0  0  0  0
  1 14  1  0  0  0  0
  1 22  2  0  0  0  0
  1 23  1  0  0  0  0
  2 18  2  0  0  0  0
  2 19  1  0  0  0  0
  2 26  1  0  0  0  0
  3  4  1  0  0  0  0
  3 16  1  0  0  0  0
  3 27  1  0  0  0  0
  3 28  1  0  0  0  0
  4  5  1  0  0  0  0
  4  9  1  0  0  0  0
  4 29  1  0  0  0  0
  5  6  1  0  0  0  0
  5 30  1  0  0  0  0
  5 31  1  0  0  0  0
  6  7  1  0  0  0  0
  6 32  1  0  0  0  0
  6 33  1  0  0  0  0
  7  8  1  0  0  0  0
  7 34  1  0  0  0  0
  7 35  1  0  0  0  0
  8  9  1  0  0  0  0
  8 36  1  0  0  0  0
  8 37  1  0  0  0  0
  9 38  1  0  0  0  0
  9 39  1  0  0  0  0
 10 11  1  0  0  0  0
 10 25  2  0  0  0  0
 10 40  1  0  0  0  0
 11 12  2  0  0  0  0
 11 45  1  0  0  0  0
 12 13  1  0  0  0  0
 12 41  1  0  0  0  0
 13 24  2  0  0  0  0
 13 42  1  0  0  0  0
 14 15  2  0  0  0  0
 15 16  1  0  0  0  0
 15 17  1  0  0  0  0
 17 18  1  0  0  0  0
 17 21  2  0  0  0  0
 19 20  1  0  0  0  0
 19 21  1  0  0  0  0
 21 22  1  0  0  0  0
 23 24  1  0  0  0  0
 23 43  1  0  0  0  0
 24 25  1  0  0  0  0
 25 44  1  0  0  0  0
 45 46  2  0  0  0  0
 45 47  2  0  0  0  0
 45 48  1  0  0  0  0
 48 49  1  0  0  0  0
 48 53  1  0  0  0  0
 49 50  1  0  0  0  0
 49 51  1  0  0  0  0
 49 52  1  0  0  0  0
 53 54  1  0  0  0  0
 53 55  1  0  0  0  0
 53 56  1  0  0  0  0
M  END
$$$$
30
  MOE2020           3D

 51 54  0  0  0  0  0  0  0  0999 V2000
    1.3900   29.1080    6.7940 C   0  0  0  0  0  0  0  0  0  0  0  0
   -1.6910   31.9130    8.0790 C   0  0  0  0  0  0  0  0  0  0  0  0
   -0.7440   26.3750    8.8320 C   0  0  0  0  0  0  0  0  0  0  0  0
   -1.3140   25.5570    9.9910 C   0  0  0  0  0  0  0  0  0  0  0  0
   -1.1210   24.0590    9.6850 C   0  0  0  0  0  0  0  0  0  0  0  0
   -1.5820   23.1800   10.8500 C   0  0  0  0  0  0  0  0  0  0  0  0
   -0.8550   23.5460   12.1490 C   0  0  0  0  0  0  0  0  0  0  0  0
   -1.0780   25.0280   12.4860 C   0  0  0  0  0  0  0  0  0  0  0  0
   -0.6320   25.9350   11.3270 C   0  0  0  0  0  0  0  0  0  0  0  0
    4.6900   25.7130    5.8380 C   0  0  0  0  0  0  0  0  0  0  0  0
    4.6670   25.1400    7.1230 C   0  0  0  0  0  0  0  0  0  0  0  0
    3.9500   25.7660    8.1580 C   0  0  0  0  0  0  0  0  0  0  0  0
    3.2460   26.9560    7.8980 C   0  0  0  0  0  0  0  0  0  0  0  0
    0.6300   28.2310    7.4510 N   0  0  0  0  0  0  0  0  0  0  0  0
   -0.4900   28.6250    8.0920 C   0  0  0  0  0  0  0  0  0  0  0  0
   -1.1800   27.7320    8.8830 O   0  0  0  0  0  0  0  0  0  0  0  0
   -0.8660   29.9820    8.0000 C   0  0  0  0  0  0  0  0  0  0  0  0
   -1.9250   30.7130    8.5210 N   0  0  0  0  0  0  0  0  0  0  0  0
   -0.5540   32.0460    7.3310 N   0  0  0  0  0  0  0  0  0  0  0  0
   -0.1780   32.8770    6.8840 H   0  0  0  0  0  0  0  0  0  0  0  0
   -0.0250   30.7860    7.2610 C   0  0  0  0  0  0  0  0  0  0  0  0
    1.1170   30.4050    6.6110 N   0  0  0  0  0  0  0  0  0  0  0  0
    2.5830   28.6810    6.3360 N   0  0  0  0  0  0  0  0  0  0  0  0
    3.2360   27.5250    6.6030 C   0  0  0  0  0  0  0  0  0  0  0  0
    3.9870   26.9070    5.5820 C   0  0  0  0  0  0  0  0  0  0  0  0
   -2.3540   32.7340    8.2870 H   0  0  0  0  0  0  0  0  0  0  0  0
    0.3420   26.2810    8.8880 H   0  0  0  0  0  0  0  0  0  0  0  0
   -1.0530   25.9540    7.8740 H   0  0  0  0  0  0  0  0  0  0  0  0
   -2.3850   25.7540   10.0700 H   0  0  0  0  0  0  0  0  0  0  0  0
   -1.6740   23.7900    8.7850 H   0  0  0  0  0  0  0  0  0  0  0  0
   -0.0710   23.8530    9.4740 H   0  0  0  0  0  0  0  0  0  0  0  0
   -2.6490   23.3290   10.9950 H   0  0  0  0  0  0  0  0  0  0  0  0
   -1.4340   22.1250   10.6150 H   0  0  0  0  0  0  0  0  0  0  0  0
   -1.2180   22.9240   12.9680 H   0  0  0  0  0  0  0  0  0  0  0  0
    0.2130   23.3450   12.0500 H   0  0  0  0  0  0  0  0  0  0  0  0
   -2.1340   25.2020   12.7000 H   0  0  0  0  0  0  0  0  0  0  0  0
   -0.5350   25.2900   13.3930 H   0  0  0  0  0  0  0  0  0  0  0  0
    0.4520   25.8640   11.2220 H   0  0  0  0  0  0  0  0  0  0  0  0
   -0.8460   26.9770   11.5730 H   0  0  0  0  0  0  0  0  0  0  0  0
    5.2550   25.2430    5.0480 H   0  0  0  0  0  0  0  0  0  0  0  0
    3.9400   25.3400    9.1500 H   0  0  0  0  0  0  0  0  0  0  0  0
    2.7080   27.4240    8.7080 H   0  0  0  0  0  0  0  0  0  0  0  0
    3.0170   29.2660    5.6330 H   0  0  0  0  0  0  0  0  0  0  0  0
    4.0230   27.3390    4.5930 H   0  0  0  0  0  0  0  0  0  0  0  0
    5.4310   23.8790    7.4000 S   0  0  0  0  0  0  0  0  0  0  0  0
    5.8110   23.2940    6.1200 O   0  0  0  0  0  0  0  0  0  0  0  0
    6.4230   24.1720    8.4270 O   0  0  0  0  0  0  0  0  0  0  0  0
    4.4920   22.8910    8.0260 C   0  0  0  0  0  0  0  0  0  0  0  0
    5.0600   21.9810    8.2210 H   0  0  0  0  0  0  0  0  0  0  0  0
    4.1200   23.3350    8.9490 H   0  0  0  0  0  0  0  0  0  0  0  0
    3.6860   22.7130    7.3140 H   0  0  0  0  0  0  0  0  0  0  0  0
  1 14  1  0  0  0  0
  1 22  2  0  0  0  0
  1 23  1  0  0  0  0
  2 18  2  0  0  0  0
  2 19  1  0  0  0  0
  2 26  1  0  0  0  0
  3  4  1  0  0  0  0
  3 16  1  0  0  0  0
  3 27  1  0  0  0  0
  3 28  1  0  0  0  0
  4  5  1  0  0  0  0
  4  9  1  0  0  0  0
  4 29  1  0  0  0  0
  5  6  1  0  0  0  0
  5 30  1  0  0  0  0
  5 31  1  0  0  0  0
  6  7  1  0  0  0  0
  6 32  1  0  0  0  0
  6 33  1  0  0  0  0
  7  8  1  0  0  0  0
  7 34  1  0  0  0  0
  7 35  1  0  0  0  0
  8  9  1  0  0  0  0
  8 36  1  0  0  0  0
  8 37  1  0  0  0  0
  9 38  1  0  0  0  0
  9 39  1  0  0  0  0
 10 11  1  0  0  0  0
 10 25  2  0  0  0  0
 10 40  1  0  0  0  0
 11 12  2  0  0  0  0
 11 45  1  0  0  0  0
 12 13  1  0  0  0  0
 12 41  1  0  0  0  0
 13 24  2  0  0  0  0
 13 42  1  0  0  0  0
 14 15  2  0  0  0  0
 15 16  1  0  0  0  0
 15 17  1  0  0  0  0
 17 18  1  0  0  0  0
 17 21  2  0  0  0  0
 19 20  1  0  0  0  0
 19 21  1  0  0  0  0
 21 22  1  0  0  0  0
 23 24  1  0  0  0  0
 23 43  1  0  0  0  0
 24 25  1  0  0  0  0
 25 44  1  0  0  0  0
 45 46  2  0  0  0  0
 45 47  2  0  0  0  0
 45 48  1  0  0  0  0
 48 49  1  0  0  0  0
 48 50  1  0  0  0  0
 48 51  1  0  0  0  0
M  END
$$$$
31
  MOE2020           3D

 50 53  0  0  0  0  0  0  0  0999 V2000
    1.3900   29.1080    6.7940 C   0  0  0  0  0  0  0  0  0  0  0  0
   -1.6910   31.9130    8.0790 C   0  0  0  0  0  0  0  0  0  0  0  0
   -0.7440   26.3750    8.8320 C   0  0  0  0  0  0  0  0  0  0  0  0
   -1.3140   25.5570    9.9910 C   0  0  0  0  0  0  0  0  0  0  0  0
   -1.1210   24.0590    9.6850 C   0  0  0  0  0  0  0  0  0  0  0  0
   -1.5820   23.1800   10.8500 C   0  0  0  0  0  0  0  0  0  0  0  0
   -0.8550   23.5460   12.1490 C   0  0  0  0  0  0  0  0  0  0  0  0
   -1.0780   25.0280   12.4860 C   0  0  0  0  0  0  0  0  0  0  0  0
   -0.6320   25.9350   11.3270 C   0  0  0  0  0  0  0  0  0  0  0  0
    4.6900   25.7130    5.8380 C   0  0  0  0  0  0  0  0  0  0  0  0
    4.6670   25.1400    7.1230 C   0  0  0  0  0  0  0  0  0  0  0  0
    3.9500   25.7660    8.1580 C   0  0  0  0  0  0  0  0  0  0  0  0
    3.2460   26.9560    7.8980 C   0  0  0  0  0  0  0  0  0  0  0  0
    0.6300   28.2310    7.4510 N   0  0  0  0  0  0  0  0  0  0  0  0
   -0.4900   28.6250    8.0920 C   0  0  0  0  0  0  0  0  0  0  0  0
   -1.1800   27.7320    8.8830 O   0  0  0  0  0  0  0  0  0  0  0  0
   -0.8660   29.9820    8.0000 C   0  0  0  0  0  0  0  0  0  0  0  0
   -1.9250   30.7130    8.5210 N   0  0  0  0  0  0  0  0  0  0  0  0
   -0.5540   32.0460    7.3310 N   0  0  0  0  0  0  0  0  0  0  0  0
   -0.1780   32.8770    6.8840 H   0  0  0  0  0  0  0  0  0  0  0  0
   -0.0250   30.7860    7.2610 C   0  0  0  0  0  0  0  0  0  0  0  0
    1.1170   30.4050    6.6110 N   0  0  0  0  0  0  0  0  0  0  0  0
    2.5830   28.6810    6.3360 N   0  0  0  0  0  0  0  0  0  0  0  0
    3.2360   27.5250    6.6030 C   0  0  0  0  0  0  0  0  0  0  0  0
    3.9870   26.9070    5.5820 C   0  0  0  0  0  0  0  0  0  0  0  0
   -2.3540   32.7340    8.2870 H   0  0  0  0  0  0  0  0  0  0  0  0
    0.3420   26.2810    8.8880 H   0  0  0  0  0  0  0  0  0  0  0  0
   -1.0530   25.9540    7.8740 H   0  0  0  0  0  0  0  0  0  0  0  0
   -2.3850   25.7540   10.0700 H   0  0  0  0  0  0  0  0  0  0  0  0
   -1.6740   23.7900    8.7850 H   0  0  0  0  0  0  0  0  0  0  0  0
   -0.0710   23.8530    9.4740 H   0  0  0  0  0  0  0  0  0  0  0  0
   -2.6490   23.3290   10.9950 H   0  0  0  0  0  0  0  0  0  0  0  0
   -1.4340   22.1250   10.6150 H   0  0  0  0  0  0  0  0  0  0  0  0
   -1.2180   22.9240   12.9680 H   0  0  0  0  0  0  0  0  0  0  0  0
    0.2130   23.3450   12.0500 H   0  0  0  0  0  0  0  0  0  0  0  0
   -2.1340   25.2020   12.7000 H   0  0  0  0  0  0  0  0  0  0  0  0
   -0.5350   25.2900   13.3930 H   0  0  0  0  0  0  0  0  0  0  0  0
    0.4520   25.8640   11.2220 H   0  0  0  0  0  0  0  0  0  0  0  0
   -0.8460   26.9770   11.5730 H   0  0  0  0  0  0  0  0  0  0  0  0
    5.2550   25.2430    5.0480 H   0  0  0  0  0  0  0  0  0  0  0  0
    3.9400   25.3400    9.1500 H   0  0  0  0  0  0  0  0  0  0  0  0
    2.7080   27.4240    8.7080 H   0  0  0  0  0  0  0  0  0  0  0  0
    3.0170   29.2660    5.6330 H   0  0  0  0  0  0  0  0  0  0  0  0
    4.0230   27.3390    4.5930 H   0  0  0  0  0  0  0  0  0  0  0  0
    5.4310   23.8790    7.4000 S   0  0  0  0  0  0  0  0  0  0  0  0
    6.1200   23.3070    6.4580 O   0  0  0  0  0  0  0  0  0  0  0  0
    5.3900   23.2870    8.7780 C   0  0  0  0  0  0  0  0  0  0  0  0
    4.7480   23.9230    9.4380 H   0  0  0  0  0  0  0  0  0  0  0  0
    4.9650   22.2540    8.7280 H   0  0  0  0  0  0  0  0  0  0  0  0
    6.4270   23.2440    9.1960 H   0  0  0  0  0  0  0  0  0  0  0  0
  1 14  1  0  0  0  0
  1 22  2  0  0  0  0
  1 23  1  0  0  0  0
  2 18  2  0  0  0  0
  2 19  1  0  0  0  0
  2 26  1  0  0  0  0
  3  4  1  0  0  0  0
  3 16  1  0  0  0  0
  3 27  1  0  0  0  0
  3 28  1  0  0  0  0
  4  5  1  0  0  0  0
  4  9  1  0  0  0  0
  4 29  1  0  0  0  0
  5  6  1  0  0  0  0
  5 30  1  0  0  0  0
  5 31  1  0  0  0  0
  6  7  1  0  0  0  0
  6 32  1  0  0  0  0
  6 33  1  0  0  0  0
  7  8  1  0  0  0  0
  7 34  1  0  0  0  0
  7 35  1  0  0  0  0
  8  9  1  0  0  0  0
  8 36  1  0  0  0  0
  8 37  1  0  0  0  0
  9 38  1  0  0  0  0
  9 39  1  0  0  0  0
 10 11  1  0  0  0  0
 10 25  2  0  0  0  0
 10 40  1  0  0  0  0
 11 12  2  0  0  0  0
 11 45  1  0  0  0  0
 12 13  1  0  0  0  0
 12 41  1  0  0  0  0
 13 24  2  0  0  0  0
 13 42  1  0  0  0  0
 14 15  2  0  0  0  0
 15 16  1  0  0  0  0
 15 17  1  0  0  0  0
 17 18  1  0  0  0  0
 17 21  2  0  0  0  0
 19 20  1  0  0  0  0
 19 21  1  0  0  0  0
 21 22  1  0  0  0  0
 23 24  1  0  0  0  0
 23 43  1  0  0  0  0
 24 25  1  0  0  0  0
 25 44  1  0  0  0  0
 45 46  2  0  0  0  0
 45 47  1  0  0  0  0
 47 48  1  0  0  0  0
 47 49  1  0  0  0  0
 47 50  1  0  0  0  0
M  END
$$$$
32
  MOE2020           3D

 54 57  0  0  0  0  0  0  0  0999 V2000
    1.3900   29.1080    6.7940 C   0  0  0  0  0  0  0  0  0  0  0  0
   -1.6910   31.9130    8.0790 C   0  0  0  0  0  0  0  0  0  0  0  0
   -0.7440   26.3750    8.8320 C   0  0  0  0  0  0  0  0  0  0  0  0
   -1.3140   25.5570    9.9910 C   0  0  0  0  0  0  0  0  0  0  0  0
   -1.1210   24.0590    9.6850 C   0  0  0  0  0  0  0  0  0  0  0  0
   -1.5820   23.1800   10.8500 C   0  0  0  0  0  0  0  0  0  0  0  0
   -0.8550   23.5460   12.1490 C   0  0  0  0  0  0  0  0  0  0  0  0
   -1.0780   25.0280   12.4860 C   0  0  0  0  0  0  0  0  0  0  0  0
   -0.6320   25.9350   11.3270 C   0  0  0  0  0  0  0  0  0  0  0  0
    4.6900   25.7130    5.8380 C   0  0  0  0  0  0  0  0  0  0  0  0
    4.6670   25.1400    7.1230 C   0  0  0  0  0  0  0  0  0  0  0  0
    3.9500   25.7660    8.1580 C   0  0  0  0  0  0  0  0  0  0  0  0
    3.2460   26.9560    7.8980 C   0  0  0  0  0  0  0  0  0  0  0  0
    0.6300   28.2310    7.4510 N   0  0  0  0  0  0  0  0  0  0  0  0
   -0.4900   28.6250    8.0920 C   0  0  0  0  0  0  0  0  0  0  0  0
   -1.1800   27.7320    8.8830 O   0  0  0  0  0  0  0  0  0  0  0  0
   -0.8660   29.9820    8.0000 C   0  0  0  0  0  0  0  0  0  0  0  0
   -1.9250   30.7130    8.5210 N   0  0  0  0  0  0  0  0  0  0  0  0
   -0.5540   32.0460    7.3310 N   0  0  0  0  0  0  0  0  0  0  0  0
   -0.1780   32.8770    6.8840 H   0  0  0  0  0  0  0  0  0  0  0  0
   -0.0250   30.7860    7.2610 C   0  0  0  0  0  0  0  0  0  0  0  0
    1.1170   30.4050    6.6110 N   0  0  0  0  0  0  0  0  0  0  0  0
    2.5830   28.6810    6.3360 N   0  0  0  0  0  0  0  0  0  0  0  0
    3.2360   27.5250    6.6030 C   0  0  0  0  0  0  0  0  0  0  0  0
    3.9870   26.9070    5.5820 C   0  0  0  0  0  0  0  0  0  0  0  0
   -2.3540   32.7340    8.2870 H   0  0  0  0  0  0  0  0  0  0  0  0
    0.3420   26.2810    8.8880 H   0  0  0  0  0  0  0  0  0  0  0  0
   -1.0530   25.9540    7.8740 H   0  0  0  0  0  0  0  0  0  0  0  0
   -2.3850   25.7540   10.0700 H   0  0  0  0  0  0  0  0  0  0  0  0
   -1.6740   23.7900    8.7850 H   0  0  0  0  0  0  0  0  0  0  0  0
   -0.0710   23.8530    9.4740 H   0  0  0  0  0  0  0  0  0  0  0  0
   -2.6490   23.3290   10.9950 H   0  0  0  0  0  0  0  0  0  0  0  0
   -1.4340   22.1250   10.6150 H   0  0  0  0  0  0  0  0  0  0  0  0
   -1.2180   22.9240   12.9680 H   0  0  0  0  0  0  0  0  0  0  0  0
    0.2130   23.3450   12.0500 H   0  0  0  0  0  0  0  0  0  0  0  0
   -2.1340   25.2020   12.7000 H   0  0  0  0  0  0  0  0  0  0  0  0
   -0.5350   25.2900   13.3930 H   0  0  0  0  0  0  0  0  0  0  0  0
    0.4520   25.8640   11.2220 H   0  0  0  0  0  0  0  0  0  0  0  0
   -0.8460   26.9770   11.5730 H   0  0  0  0  0  0  0  0  0  0  0  0
    5.2550   25.2430    5.0480 H   0  0  0  0  0  0  0  0  0  0  0  0
    2.7080   27.4240    8.7080 H   0  0  0  0  0  0  0  0  0  0  0  0
    3.0170   29.2660    5.6330 H   0  0  0  0  0  0  0  0  0  0  0  0
    4.0230   27.3390    4.5930 H   0  0  0  0  0  0  0  0  0  0  0  0
    5.4310   23.8790    7.4000 S   0  0  0  0  0  0  0  0  0  0  0  0
    5.8110   23.2940    6.1200 O   0  0  0  0  0  0  0  0  0  0  0  0
    6.4230   24.1720    8.4270 O   0  0  0  0  0  0  0  0  0  0  0  0
    4.3520   22.7430    8.1190 N   0  0  0  0  0  0  0  0  0  0  0  0
    3.9460   22.9600    9.0170 H   0  0  0  0  0  0  0  0  0  0  0  0
    4.2330   21.8410    7.6810 H   0  0  0  0  0  0  0  0  0  0  0  0
    3.9380   25.2280    9.4110 O   0  0  0  0  0  0  0  0  0  0  0  0
    3.1570   26.0270   10.2720 C   0  0  0  0  0  0  0  0  0  0  0  0
    3.1540   25.5780   11.2960 H   0  0  0  0  0  0  0  0  0  0  0  0
    3.5900   27.0580   10.3180 H   0  0  0  0  0  0  0  0  0  0  0  0
    2.1090   26.0790    9.8840 H   0  0  0  0  0  0  0  0  0  0  0  0
  1 14  1  0  0  0  0
  1 22  2  0  0  0  0
  1 23  1  0  0  0  0
  2 18  2  0  0  0  0
  2 19  1  0  0  0  0
  2 26  1  0  0  0  0
  3  4  1  0  0  0  0
  3 16  1  0  0  0  0
  3 27  1  0  0  0  0
  3 28  1  0  0  0  0
  4  5  1  0  0  0  0
  4  9  1  0  0  0  0
  4 29  1  0  0  0  0
  5  6  1  0  0  0  0
  5 30  1  0  0  0  0
  5 31  1  0  0  0  0
  6  7  1  0  0  0  0
  6 32  1  0  0  0  0
  6 33  1  0  0  0  0
  7  8  1  0  0  0  0
  7 34  1  0  0  0  0
  7 35  1  0  0  0  0
  8  9  1  0  0  0  0
  8 36  1  0  0  0  0
  8 37  1  0  0  0  0
  9 38  1  0  0  0  0
  9 39  1  0  0  0  0
 10 11  1  0  0  0  0
 10 25  2  0  0  0  0
 10 40  1  0  0  0  0
 11 12  2  0  0  0  0
 11 44  1  0  0  0  0
 12 13  1  0  0  0  0
 12 50  1  0  0  0  0
 13 24  2  0  0  0  0
 13 41  1  0  0  0  0
 14 15  2  0  0  0  0
 15 16  1  0  0  0  0
 15 17  1  0  0  0  0
 17 18  1  0  0  0  0
 17 21  2  0  0  0  0
 19 20  1  0  0  0  0
 19 21  1  0  0  0  0
 21 22  1  0  0  0  0
 23 24  1  0  0  0  0
 23 42  1  0  0  0  0
 24 25  1  0  0  0  0
 25 43  1  0  0  0  0
 44 45  2  0  0  0  0
 44 46  2  0  0  0  0
 44 47  1  0  0  0  0
 47 48  1  0  0  0  0
 47 49  1  0  0  0  0
 50 51  1  0  0  0  0
 51 52  1  0  0  0  0
 51 53  1  0  0  0  0
 51 54  1  0  0  0  0
M  END
$$$$