18629-1
                    3D
 Structure written by MMmdl.
 41 42  0  0  1  0            999 V2000
   32.2375  -11.9376  -17.6548 C   0  0  0  0  0  0                  
   32.0827  -12.7028  -16.3384 C   0  0  0  0  0  0                  
   31.4933  -11.8196  -15.3871 O   0  0  0  0  0  0                  
   31.2912  -12.2508  -14.0873 C   0  0  0  0  0  0                  
   31.6691  -13.5231  -13.7857 N   0  0  0  0  0  0                  
   31.4542  -13.9725  -12.5411 C   0  0  0  0  0  0                  
   30.8967  -13.1953  -11.5380 C   0  0  0  0  0  0                  
   30.5187  -11.9011  -11.8441 C   0  0  0  0  0  0                  
   29.9535  -11.1831  -10.7981 N   0  0  0  0  0  0                  
   30.7091  -11.3983  -13.1417 C   0  0  0  0  0  0                  
   30.3222  -10.0483  -13.5363 C   0  0  0  0  0  0                  
   30.0186   -8.9782  -13.8579 N   0  0  0  0  0  0                  
   31.9028  -15.2673  -12.3917 N   0  0  0  0  0  0                  
   31.5370  -16.2033  -11.5101 C   0  0  0  0  0  0                  
   30.6380  -16.0387  -10.6875 O   0  0  0  0  0  0                  
   32.2670  -17.5545  -11.5385 C   0  0  0  0  0  0                  
   33.4504  -17.6415  -12.5029 C   0  0  0  0  0  0                  
   33.2517  -17.5798  -13.8884 C   0  0  0  0  0  0                  
   34.3426  -17.6052  -14.7599 C   0  0  0  0  0  0                  
   34.1351  -17.4873  -16.2568 C   0  0  0  0  0  0                  
   35.6341  -17.7343  -14.2462 C   0  0  0  0  0  0                  
   35.8365  -17.8185  -12.8690 C   0  0  0  0  0  0                  
   34.7480  -17.7682  -11.9994 C   0  0  0  0  0  0                  
   32.6845  -12.5677  -18.4231 H   0  0  0  0  0  0                  
   31.2677  -11.6011  -18.0219 H   0  0  0  0  0  0                  
   32.8690  -11.0591  -17.5262 H   0  0  0  0  0  0                  
   31.4514  -13.5821  -16.4844 H   0  0  0  0  0  0                  
   33.0602  -13.0468  -15.9928 H   0  0  0  0  0  0                  
   30.7565  -13.5839  -10.5432 H   0  0  0  0  0  0                  
   29.9264  -11.5857   -9.8659 H   0  0  0  0  0  0                  
   29.5768  -10.2511  -10.9557 H   0  0  0  0  0  0                  
   32.6104  -15.5023  -13.0650 H   0  0  0  0  0  0                  
   32.5995  -17.7694  -10.5239 H   0  0  0  0  0  0                  
   31.5421  -18.3227  -11.7912 H   0  0  0  0  0  0                  
   32.2503  -17.4913  -14.2874 H   0  0  0  0  0  0                  
   33.1795  -17.0200  -16.4955 H   0  0  0  0  0  0                  
   34.9190  -16.8786  -16.7102 H   0  0  0  0  0  0                  
   34.1604  -18.4745  -16.7186 H   0  0  0  0  0  0                  
   36.4831  -17.7608  -14.9149 H   0  0  0  0  0  0                  
   36.8385  -17.9168  -12.4757 H   0  0  0  0  0  0                  
   34.9194  -17.8306  -10.9337 H   0  0  0  0  0  0                  
  1  2  1  0  0  0
  1 24  1  0  0  0
  1 25  1  0  0  0
  1 26  1  0  0  0
  2  3  1  0  0  0
  2 27  1  0  0  0
  2 28  1  0  0  0
  3  4  1  0  0  0
  4 10  1  0  0  0
  4  5  2  0  0  0
  5  6  1  0  0  0
  6  7  2  0  0  0
  6 13  1  0  0  0
  7  8  1  0  0  0
  7 29  1  0  0  0
  8  9  1  0  0  0
  8 10  2  0  0  0
  9 30  1  0  0  0
  9 31  1  0  0  0
 10 11  1  0  0  0
 11 12  3  0  0  0
 13 14  1  0  0  0
 13 32  1  0  0  0
 14 15  2  0  0  0
 14 16  1  0  0  0
 16 17  1  0  0  0
 16 33  1  0  0  0
 16 34  1  0  0  0
 17 23  1  0  0  0
 17 18  2  0  0  0
 18 19  1  0  0  0
 18 35  1  0  0  0
 19 20  1  0  0  0
 19 21  2  0  0  0
 20 36  1  0  0  0
 20 37  1  0  0  0
 20 38  1  0  0  0
 21 22  1  0  0  0
 21 39  1  0  0  0
 22 23  2  0  0  0
 22 40  1  0  0  0
 23 41  1  0  0  0
M  END
> <i_m_stars>
0

> <r_user_dG.exp>
-8.67377

$$$$
18634-1
                    3D
 Structure written by MMmdl.
 46 47  0  0  1  0            999 V2000
   32.1928  -11.8004  -17.8002 C   0  0  0  0  0  0                  
   31.9946  -12.6080  -16.5153 C   0  0  0  0  0  0                  
   31.4702  -11.7280  -15.5250 O   0  0  0  0  0  0                  
   31.2781  -12.1862  -14.2330 C   0  0  0  0  0  0                  
   31.6185  -13.4776  -13.9700 N   0  0  0  0  0  0                  
   31.4183  -13.9493  -12.7299 C   0  0  0  0  0  0                  
   30.9198  -13.1716  -11.6942 C   0  0  0  0  0  0                  
   30.5717  -11.8606  -11.9646 C   0  0  0  0  0  0                  
   30.0496  -11.1452  -10.8936 N   0  0  0  0  0  0                  
   30.7395  -11.3397  -13.2577 C   0  0  0  0  0  0                  
   30.3637   -9.9785  -13.6209 C   0  0  0  0  0  0                  
   30.0672   -8.9000  -13.9190 N   0  0  0  0  0  0                  
   31.7743  -15.2797  -12.6474 N   0  0  0  0  0  0                  
   31.5404  -16.1835  -11.6917 C   0  0  0  0  0  0                  
   30.9005  -15.9655  -10.6646 O   0  0  0  0  0  0                  
   32.0517  -17.5925  -11.9684 C   0  0  0  0  0  0                  
   33.5434  -17.6489  -12.2870 C   0  0  0  0  0  0                  
   34.0113  -17.3876  -13.5845 C   0  0  0  0  0  0                  
   33.0793  -17.0358  -14.5439 O   0  0  0  0  0  0                  
   33.5286  -16.4655  -15.7715 C   0  0  0  0  0  0                  
   35.3864  -17.4855  -13.8378 C   0  0  0  0  0  0                  
   36.2816  -17.7712  -12.8063 C   0  0  0  0  0  0                  
   35.8183  -17.9830  -11.5006 C   0  0  0  0  0  0                  
   34.4474  -17.9470  -11.2633 C   0  0  0  0  0  0                  
   36.6280  -18.2249  -10.4110 O   0  0  0  0  0  0                  
   38.0373  -18.0824  -10.5525 C   0  0  0  0  0  0                  
   32.5753  -12.4300  -18.6034 H   0  0  0  0  0  0                  
   31.2492  -11.3681  -18.1352 H   0  0  0  0  0  0                  
   32.8974  -10.9834  -17.6444 H   0  0  0  0  0  0                  
   31.3041  -13.4366  -16.6889 H   0  0  0  0  0  0                  
   32.9505  -13.0294  -16.1947 H   0  0  0  0  0  0                  
   30.7863  -13.5715  -10.7033 H   0  0  0  0  0  0                  
   29.6644  -10.2143  -11.0347 H   0  0  0  0  0  0                  
   30.0020  -11.5725   -9.9740 H   0  0  0  0  0  0                  
   32.2653  -15.5942  -13.4697 H   0  0  0  0  0  0                  
   31.8218  -18.2492  -11.1329 H   0  0  0  0  0  0                  
   31.4835  -17.9532  -12.8185 H   0  0  0  0  0  0                  
   34.0735  -17.1921  -16.3760 H   0  0  0  0  0  0                  
   32.6665  -16.1386  -16.3529 H   0  0  0  0  0  0                  
   34.1600  -15.5903  -15.6049 H   0  0  0  0  0  0                  
   35.7803  -17.3202  -14.8292 H   0  0  0  0  0  0                  
   37.3356  -17.8142  -13.0342 H   0  0  0  0  0  0                  
   34.0960  -18.1492  -10.2620 H   0  0  0  0  0  0                  
   38.4473  -18.8190  -11.2448 H   0  0  0  0  0  0                  
   38.3091  -17.0814  -10.8910 H   0  0  0  0  0  0                  
   38.5137  -18.2412   -9.5852 H   0  0  0  0  0  0                  
  1  2  1  0  0  0
  1 27  1  0  0  0
  1 28  1  0  0  0
  1 29  1  0  0  0
  2  3  1  0  0  0
  2 30  1  0  0  0
  2 31  1  0  0  0
  3  4  1  0  0  0
  4 10  1  0  0  0
  4  5  2  0  0  0
  5  6  1  0  0  0
  6  7  2  0  0  0
  6 13  1  0  0  0
  7  8  1  0  0  0
  7 32  1  0  0  0
  8  9  1  0  0  0
  8 10  2  0  0  0
  9 33  1  0  0  0
  9 34  1  0  0  0
 10 11  1  0  0  0
 11 12  3  0  0  0
 13 14  1  0  0  0
 13 35  1  0  0  0
 14 15  2  0  0  0
 14 16  1  0  0  0
 16 17  1  0  0  0
 16 36  1  0  0  0
 16 37  1  0  0  0
 17 24  1  0  0  0
 17 18  2  0  0  0
 18 19  1  0  0  0
 18 21  1  0  0  0
 19 20  1  0  0  0
 20 38  1  0  0  0
 20 39  1  0  0  0
 20 40  1  0  0  0
 21 22  2  0  0  0
 21 41  1  0  0  0
 22 23  1  0  0  0
 22 42  1  0  0  0
 23 24  2  0  0  0
 23 25  1  0  0  0
 24 43  1  0  0  0
 25 26  1  0  0  0
 26 44  1  0  0  0
 26 45  1  0  0  0
 26 46  1  0  0  0
M  END
> <i_m_stars>
0

> <r_user_dG.exp>
-9.993231

$$$$
18628-1
                    3D
 Structure written by MMmdl.
 41 42  0  0  1  0            999 V2000
   32.1537  -11.8140  -17.6506 C   0  0  0  0  0  0                  
   32.0227  -12.6048  -16.3467 C   0  0  0  0  0  0                  
   31.4448  -11.7427  -15.3690 O   0  0  0  0  0  0                  
   31.2650  -12.1998  -14.0745 C   0  0  0  0  0  0                  
   31.6694  -13.4689  -13.7998 N   0  0  0  0  0  0                  
   31.4761  -13.9455  -12.5625 C   0  0  0  0  0  0                  
   30.9083  -13.2027  -11.5395 C   0  0  0  0  0  0                  
   30.5039  -11.9085  -11.8182 C   0  0  0  0  0  0                  
   29.9309  -11.2178  -10.7574 N   0  0  0  0  0  0                  
   30.6771  -11.3767  -13.1077 C   0  0  0  0  0  0                  
   30.2665  -10.0270  -13.4777 C   0  0  0  0  0  0                  
   29.9444   -8.9574  -13.7822 N   0  0  0  0  0  0                  
   31.9645  -15.2282  -12.4548 N   0  0  0  0  0  0                  
   31.6712  -16.2022  -11.5886 C   0  0  0  0  0  0                  
   30.8216  -16.0870  -10.7075 O   0  0  0  0  0  0                  
   32.4319  -17.5338  -11.7237 C   0  0  0  0  0  0                  
   33.3639  -17.6383  -12.9483 C   0  0  0  0  0  0                  
   34.7542  -17.8304  -12.8264 C   0  0  0  0  0  0                  
   35.4348  -17.9788  -11.4771 C   0  0  0  0  0  0                  
   35.5534  -17.8656  -13.9736 C   0  0  0  0  0  0                  
   34.9895  -17.7171  -15.2380 C   0  0  0  0  0  0                  
   33.6151  -17.5498  -15.3669 C   0  0  0  0  0  0                  
   32.8089  -17.5234  -14.2311 C   0  0  0  0  0  0                  
   32.7838  -10.9356  -17.5152 H   0  0  0  0  0  0                  
   32.5914  -12.4273  -18.4377 H   0  0  0  0  0  0                  
   31.1769  -11.4746  -17.9959 H   0  0  0  0  0  0                  
   31.3928  -13.4839  -16.4992 H   0  0  0  0  0  0                  
   33.0072  -12.9513  -16.0239 H   0  0  0  0  0  0                  
   30.7846  -13.6158  -10.5526 H   0  0  0  0  0  0                  
   29.5513  -10.2843  -10.8987 H   0  0  0  0  0  0                  
   29.9306  -11.6263   -9.8270 H   0  0  0  0  0  0                  
   32.6291  -15.4324  -13.1806 H   0  0  0  0  0  0                  
   32.9574  -17.6944  -10.7850 H   0  0  0  0  0  0                  
   31.6918  -18.3285  -11.7840 H   0  0  0  0  0  0                  
   34.9446  -18.7357  -10.8638 H   0  0  0  0  0  0                  
   36.4792  -18.2764  -11.5761 H   0  0  0  0  0  0                  
   35.4134  -17.0231  -10.9605 H   0  0  0  0  0  0                  
   36.6227  -17.9994  -13.8891 H   0  0  0  0  0  0                  
   35.6181  -17.7320  -16.1181 H   0  0  0  0  0  0                  
   33.1816  -17.4367  -16.3500 H   0  0  0  0  0  0                  
   31.7428  -17.3874  -14.3440 H   0  0  0  0  0  0                  
  1  2  1  0  0  0
  1 24  1  0  0  0
  1 25  1  0  0  0
  1 26  1  0  0  0
  2  3  1  0  0  0
  2 27  1  0  0  0
  2 28  1  0  0  0
  3  4  1  0  0  0
  4 10  1  0  0  0
  4  5  2  0  0  0
  5  6  1  0  0  0
  6  7  2  0  0  0
  6 13  1  0  0  0
  7  8  1  0  0  0
  7 29  1  0  0  0
  8  9  1  0  0  0
  8 10  2  0  0  0
  9 30  1  0  0  0
  9 31  1  0  0  0
 10 11  1  0  0  0
 11 12  3  0  0  0
 13 14  1  0  0  0
 13 32  1  0  0  0
 14 15  2  0  0  0
 14 16  1  0  0  0
 16 17  1  0  0  0
 16 33  1  0  0  0
 16 34  1  0  0  0
 17 23  1  0  0  0
 17 18  2  0  0  0
 18 19  1  0  0  0
 18 20  1  0  0  0
 19 35  1  0  0  0
 19 36  1  0  0  0
 19 37  1  0  0  0
 20 21  2  0  0  0
 20 38  1  0  0  0
 21 22  1  0  0  0
 21 39  1  0  0  0
 22 23  2  0  0  0
 22 40  1  0  0  0
 23 41  1  0  0  0
M  END
> <i_m_stars>
0

> <r_user_dG.exp>
-8.702592

$$$$
18660-1
                    3D
 Structure written by MMmdl.
 52 53  0  0  1  0            999 V2000
   29.3130  -10.5426  -17.2641 C   0  0  0  0  0  0                  
   30.6423  -11.2939  -18.2664 S   0  0  0  0  0  0                  
   30.1047  -11.5179  -19.6165 O   0  0  0  0  0  0                  
   31.8632  -10.5006  -18.0792 O   0  0  0  0  0  0                  
   30.9241  -12.9174  -17.4728 C   0  0  0  0  0  0                  
   31.9601  -12.8231  -16.3501 C   0  0  0  0  0  0                  
   31.4605  -11.9217  -15.3553 O   0  0  0  0  0  0                  
   31.3121  -12.3145  -14.0391 C   0  0  0  0  0  0                  
   31.6948  -13.5759  -13.7343 N   0  0  0  0  0  0                  
   31.4994  -14.0236  -12.4954 C   0  0  0  0  0  0                  
   30.9542  -13.2507  -11.4809 C   0  0  0  0  0  0                  
   30.5701  -11.9549  -11.7859 C   0  0  0  0  0  0                  
   29.9958  -11.2339  -10.7454 N   0  0  0  0  0  0                  
   30.7499  -11.4546  -13.0876 C   0  0  0  0  0  0                  
   30.3635  -10.1050  -13.4810 C   0  0  0  0  0  0                  
   30.0597   -9.0353  -13.8038 N   0  0  0  0  0  0                  
   31.9059  -15.3325  -12.4190 N   0  0  0  0  0  0                  
   31.5447  -16.2838  -11.5657 C   0  0  0  0  0  0                  
   30.7627  -16.1023  -10.6369 O   0  0  0  0  0  0                  
   32.0789  -17.6823  -11.8570 C   0  0  0  0  0  0                  
   33.5908  -17.7481  -12.0695 C   0  0  0  0  0  0                  
   34.1543  -17.4254  -13.3144 C   0  0  0  0  0  0                  
   33.2921  -17.0153  -14.3154 O   0  0  0  0  0  0                  
   33.8152  -16.6402  -15.5873 C   0  0  0  0  0  0                  
   35.5435  -17.5286  -13.4729 C   0  0  0  0  0  0                  
   36.3531  -17.9147  -12.4044 C   0  0  0  0  0  0                  
   35.7997  -18.2338  -11.1674 C   0  0  0  0  0  0                  
   34.4105  -18.1503  -11.0104 C   0  0  0  0  0  0                  
   36.6759  -18.6052  -10.1694 O   0  0  0  0  0  0                  
   36.1705  -19.3068   -9.0359 C   0  0  0  0  0  0                  
   28.4430  -11.1948  -17.2712 H   0  0  0  0  0  0                  
   29.6644  -10.4089  -16.2452 H   0  0  0  0  0  0                  
   29.0619   -9.5717  -17.6844 H   0  0  0  0  0  0                  
   29.9705  -13.3027  -17.1204 H   0  0  0  0  0  0                  
   31.2751  -13.5900  -18.2522 H   0  0  0  0  0  0                  
   32.1976  -13.8349  -16.0204 H   0  0  0  0  0  0                  
   32.9049  -12.4251  -16.7235 H   0  0  0  0  0  0                  
   30.8139  -13.6456  -10.4892 H   0  0  0  0  0  0                  
   29.6195  -10.3035  -10.9104 H   0  0  0  0  0  0                  
   29.9764  -11.6261   -9.8078 H   0  0  0  0  0  0                  
   32.4872  -15.6008  -13.1979 H   0  0  0  0  0  0                  
   31.7828  -18.3710  -11.0727 H   0  0  0  0  0  0                  
   31.5742  -18.0044  -12.7615 H   0  0  0  0  0  0                  
   34.3426  -17.4662  -16.0669 H   0  0  0  0  0  0                  
   32.9923  -16.3555  -16.2429 H   0  0  0  0  0  0                  
   34.4829  -15.7810  -15.5121 H   0  0  0  0  0  0                  
   36.0144  -17.3072  -14.4181 H   0  0  0  0  0  0                  
   37.4240  -17.9798  -12.5320 H   0  0  0  0  0  0                  
   33.9600  -18.4057  -10.0647 H   0  0  0  0  0  0                  
   37.0029  -19.5991   -8.3959 H   0  0  0  0  0  0                  
   35.5000  -18.6963   -8.4318 H   0  0  0  0  0  0                  
   35.6508  -20.2190   -9.3299 H   0  0  0  0  0  0                  
  1  2  1  0  0  0
  1 31  1  0  0  0
  1 32  1  0  0  0
  1 33  1  0  0  0
  2  3  2  0  0  0
  2  4  2  0  0  0
  2  5  1  0  0  0
  5  6  1  0  0  0
  5 34  1  0  0  0
  5 35  1  0  0  0
  6  7  1  0  0  0
  6 36  1  0  0  0
  6 37  1  0  0  0
  7  8  1  0  0  0
  8 14  1  0  0  0
  8  9  2  0  0  0
  9 10  1  0  0  0
 10 11  2  0  0  0
 10 17  1  0  0  0
 11 12  1  0  0  0
 11 38  1  0  0  0
 12 13  1  0  0  0
 12 14  2  0  0  0
 13 39  1  0  0  0
 13 40  1  0  0  0
 14 15  1  0  0  0
 15 16  3  0  0  0
 17 18  1  0  0  0
 17 41  1  0  0  0
 18 19  2  0  0  0
 18 20  1  0  0  0
 20 21  1  0  0  0
 20 42  1  0  0  0
 20 43  1  0  0  0
 21 28  1  0  0  0
 21 22  2  0  0  0
 22 23  1  0  0  0
 22 25  1  0  0  0
 23 24  1  0  0  0
 24 44  1  0  0  0
 24 45  1  0  0  0
 24 46  1  0  0  0
 25 26  2  0  0  0
 25 47  1  0  0  0
 26 27  1  0  0  0
 26 48  1  0  0  0
 27 28  2  0  0  0
 27 29  1  0  0  0
 28 49  1  0  0  0
 29 30  1  0  0  0
 30 50  1  0  0  0
 30 51  1  0  0  0
 30 52  1  0  0  0
M  END
> <i_m_stars>
0

> <r_user_dG.exp>
-8.702592

$$$$
18624-1
                    3D
 Structure written by MMmdl.
 38 39  0  0  1  0            999 V2000
   32.2039  -11.8833  -17.6576 C   0  0  0  0  0  0                  
   32.0536  -12.6612  -16.3480 C   0  0  0  0  0  0                  
   31.4725  -11.7855  -15.3850 O   0  0  0  0  0  0                  
   31.2763  -12.2279  -14.0881 C   0  0  0  0  0  0                  
   31.6570  -13.5019  -13.7980 N   0  0  0  0  0  0                  
   31.4465  -13.9623  -12.5566 C   0  0  0  0  0  0                  
   30.8910  -13.1942  -11.5453 C   0  0  0  0  0  0                  
   30.5104  -11.8978  -11.8396 C   0  0  0  0  0  0                  
   29.9470  -11.1887  -10.7866 N   0  0  0  0  0  0                  
   30.6960  -11.3842  -13.1339 C   0  0  0  0  0  0                  
   30.3047  -10.0327  -13.5181 C   0  0  0  0  0  0                  
   29.9976   -8.9615  -13.8325 N   0  0  0  0  0  0                  
   31.9001  -15.2571  -12.4211 N   0  0  0  0  0  0                  
   31.5674  -16.1959  -11.5291 C   0  0  0  0  0  0                  
   30.6865  -16.0423  -10.6851 O   0  0  0  0  0  0                  
   32.3196  -17.5350  -11.5725 C   0  0  0  0  0  0                  
   33.3848  -17.6427  -12.6652 C   0  0  0  0  0  0                  
   33.0142  -17.6810  -14.0149 C   0  0  0  0  0  0                  
   33.9867  -17.7513  -15.0116 C   0  0  0  0  0  0                  
   35.3367  -17.7840  -14.6638 C   0  0  0  0  0  0                  
   35.7127  -17.7521  -13.3204 C   0  0  0  0  0  0                  
   34.7396  -17.6816  -12.3230 C   0  0  0  0  0  0                  
   32.6449  -12.5069  -18.4345 H   0  0  0  0  0  0                  
   31.2332  -11.5398  -18.0161 H   0  0  0  0  0  0                  
   32.8391  -11.0081  -17.5236 H   0  0  0  0  0  0                  
   31.4184  -13.5369  -16.4989 H   0  0  0  0  0  0                  
   33.0319  -13.0119  -16.0112 H   0  0  0  0  0  0                  
   30.7546  -13.5905  -10.5531 H   0  0  0  0  0  0                  
   29.9271  -11.5958   -9.8561 H   0  0  0  0  0  0                  
   29.5699  -10.2556  -10.9369 H   0  0  0  0  0  0                  
   32.5872  -15.4897  -13.1166 H   0  0  0  0  0  0                  
   32.7635  -17.7022  -10.5913 H   0  0  0  0  0  0                  
   31.5882  -18.3269  -11.7133 H   0  0  0  0  0  0                  
   31.9695  -17.6489  -14.2909 H   0  0  0  0  0  0                  
   33.6972  -17.7794  -16.0532 H   0  0  0  0  0  0                  
   36.0918  -17.8327  -15.4364 H   0  0  0  0  0  0                  
   36.7596  -17.7791  -13.0524 H   0  0  0  0  0  0                  
   35.0441  -17.6565  -11.2859 H   0  0  0  0  0  0                  
  1  2  1  0  0  0
  1 23  1  0  0  0
  1 24  1  0  0  0
  1 25  1  0  0  0
  2  3  1  0  0  0
  2 26  1  0  0  0
  2 27  1  0  0  0
  3  4  1  0  0  0
  4 10  1  0  0  0
  4  5  2  0  0  0
  5  6  1  0  0  0
  6  7  2  0  0  0
  6 13  1  0  0  0
  7  8  1  0  0  0
  7 28  1  0  0  0
  8  9  1  0  0  0
  8 10  2  0  0  0
  9 29  1  0  0  0
  9 30  1  0  0  0
 10 11  1  0  0  0
 11 12  3  0  0  0
 13 14  1  0  0  0
 13 31  1  0  0  0
 14 15  2  0  0  0
 14 16  1  0  0  0
 16 17  1  0  0  0
 16 32  1  0  0  0
 16 33  1  0  0  0
 17 22  1  0  0  0
 17 18  2  0  0  0
 18 19  1  0  0  0
 18 34  1  0  0  0
 19 20  2  0  0  0
 19 35  1  0  0  0
 20 21  1  0  0  0
 20 36  1  0  0  0
 21 22  2  0  0  0
 21 37  1  0  0  0
 22 38  1  0  0  0
M  END
> <i_m_stars>
2

> <r_user_dG.exp>
-8.49337

$$$$
18633-1
                    3D
 Structure written by MMmdl.
 42 43  0  0  1  0            999 V2000
   32.2254  -11.9208  -17.6553 C   0  0  0  0  0  0                  
   32.0701  -12.6886  -16.3403 C   0  0  0  0  0  0                  
   31.4856  -11.8055  -15.3860 O   0  0  0  0  0  0                  
   31.2830  -12.2392  -14.0871 C   0  0  0  0  0  0                  
   31.6577  -13.5131  -13.7880 N   0  0  0  0  0  0                  
   31.4404  -13.9647  -12.5447 C   0  0  0  0  0  0                  
   30.8861  -13.1879  -11.5398 C   0  0  0  0  0  0                  
   30.5120  -11.8923  -11.8432 C   0  0  0  0  0  0                  
   29.9490  -11.1758  -10.7953 N   0  0  0  0  0  0                  
   30.7029  -11.3873  -13.1400 C   0  0  0  0  0  0                  
   30.3176  -10.0364  -13.5322 C   0  0  0  0  0  0                  
   30.0153   -8.9656  -13.8525 N   0  0  0  0  0  0                  
   31.8845  -15.2613  -12.3979 N   0  0  0  0  0  0                  
   31.5301  -16.1927  -11.5064 C   0  0  0  0  0  0                  
   30.6364  -16.0286  -10.6781 O   0  0  0  0  0  0                  
   32.2739  -17.5370  -11.5289 C   0  0  0  0  0  0                  
   33.3720  -17.6500  -12.5868 C   0  0  0  0  0  0                  
   34.7147  -17.6721  -12.2029 C   0  0  0  0  0  0                  
   35.7147  -17.7434  -13.1726 C   0  0  0  0  0  0                  
   35.3966  -17.7969  -14.5293 C   0  0  0  0  0  0                  
   34.0455  -17.7840  -14.9095 C   0  0  0  0  0  0                  
   33.0419  -17.7088  -13.9450 C   0  0  0  0  0  0                  
   36.4574  -17.8527  -15.4083 O   0  0  0  0  0  0                  
   36.1912  -17.9146  -16.8073 C   0  0  0  0  0  0                  
   32.6690  -12.5509  -18.4256 H   0  0  0  0  0  0                  
   31.2561  -11.5801  -18.0199 H   0  0  0  0  0  0                  
   32.8603  -11.0449  -17.5257 H   0  0  0  0  0  0                  
   31.4354  -13.5653  -16.4870 H   0  0  0  0  0  0                  
   33.0469  -13.0368  -15.9970 H   0  0  0  0  0  0                  
   30.7450  -13.5774  -10.5455 H   0  0  0  0  0  0                  
   29.9212  -11.5806   -9.8642 H   0  0  0  0  0  0                  
   29.5727  -10.2433  -10.9512 H   0  0  0  0  0  0                  
   32.5813  -15.5009  -13.0806 H   0  0  0  0  0  0                  
   32.6867  -17.7080  -10.5348 H   0  0  0  0  0  0                  
   31.5428  -18.3244  -11.6945 H   0  0  0  0  0  0                  
   34.9886  -17.6325  -11.1572 H   0  0  0  0  0  0                  
   36.7537  -17.7555  -12.8777 H   0  0  0  0  0  0                  
   33.7596  -17.8284  -15.9493 H   0  0  0  0  0  0                  
   32.0051  -17.6890  -14.2534 H   0  0  0  0  0  0                  
   37.1340  -17.9112  -17.3545 H   0  0  0  0  0  0                  
   35.6585  -18.8298  -17.0724 H   0  0  0  0  0  0                  
   35.6113  -17.0558  -17.1503 H   0  0  0  0  0  0                  
  1  2  1  0  0  0
  1 25  1  0  0  0
  1 26  1  0  0  0
  1 27  1  0  0  0
  2  3  1  0  0  0
  2 28  1  0  0  0
  2 29  1  0  0  0
  3  4  1  0  0  0
  4 10  1  0  0  0
  4  5  2  0  0  0
  5  6  1  0  0  0
  6  7  2  0  0  0
  6 13  1  0  0  0
  7  8  1  0  0  0
  7 30  1  0  0  0
  8  9  1  0  0  0
  8 10  2  0  0  0
  9 31  1  0  0  0
  9 32  1  0  0  0
 10 11  1  0  0  0
 11 12  3  0  0  0
 13 14  1  0  0  0
 13 33  1  0  0  0
 14 15  2  0  0  0
 14 16  1  0  0  0
 16 17  1  0  0  0
 16 34  1  0  0  0
 16 35  1  0  0  0
 17 22  1  0  0  0
 17 18  2  0  0  0
 18 19  1  0  0  0
 18 36  1  0  0  0
 19 20  2  0  0  0
 19 37  1  0  0  0
 20 21  1  0  0  0
 20 23  1  0  0  0
 21 22  2  0  0  0
 21 38  1  0  0  0
 22 39  1  0  0  0
 23 24  1  0  0  0
 24 40  1  0  0  0
 24 41  1  0  0  0
 24 42  1  0  0  0
M  END
> <i_m_stars>
0

> <r_user_dG.exp>
-9.174299

$$$$
18635-1
                    3D
 Structure written by MMmdl.
 44 45  0  0  1  0            999 V2000
   32.1243  -11.7410  -17.6951 C   0  0  0  0  0  0                  
   31.9928  -12.5464  -16.4003 C   0  0  0  0  0  0                  
   31.4308  -11.6901  -15.4089 O   0  0  0  0  0  0                  
   31.2633  -12.1562  -14.1159 C   0  0  0  0  0  0                  
   31.6584  -13.4317  -13.8560 N   0  0  0  0  0  0                  
   31.4752  -13.9139  -12.6189 C   0  0  0  0  0  0                  
   30.9333  -13.1709  -11.5821 C   0  0  0  0  0  0                  
   30.5318  -11.8737  -11.8487 C   0  0  0  0  0  0                  
   29.9668  -11.1901  -10.7795 N   0  0  0  0  0  0                  
   30.6900  -11.3364  -13.1376 C   0  0  0  0  0  0                  
   30.2727   -9.9862  -13.4976 C   0  0  0  0  0  0                  
   29.9445   -8.9167  -13.7948 N   0  0  0  0  0  0                  
   31.8935  -15.2228  -12.5496 N   0  0  0  0  0  0                  
   31.5594  -16.1933  -11.6966 C   0  0  0  0  0  0                  
   30.8343  -16.0367  -10.7152 O   0  0  0  0  0  0                  
   32.0524  -17.5925  -12.0588 C   0  0  0  0  0  0                  
   33.5516  -17.6685  -12.3479 C   0  0  0  0  0  0                  
   34.5241  -17.7412  -11.3293 C   0  0  0  0  0  0                  
   34.1804  -17.7210   -9.8458 C   0  0  0  0  0  0                  
   35.8764  -17.7995  -11.6765 C   0  0  0  0  0  0                  
   36.2694  -17.7996  -13.0129 C   0  0  0  0  0  0                  
   35.3121  -17.7267  -14.0225 C   0  0  0  0  0  0                  
   35.7448  -17.7153  -15.4756 C   0  0  0  0  0  0                  
   33.9604  -17.6574  -13.6854 C   0  0  0  0  0  0                  
   32.5495  -12.3489  -18.4930 H   0  0  0  0  0  0                  
   31.1495  -11.3854  -18.0295 H   0  0  0  0  0  0                  
   32.7658  -10.8718  -17.5527 H   0  0  0  0  0  0                  
   31.3521  -13.4166  -16.5588 H   0  0  0  0  0  0                  
   32.9757  -12.9071  -16.0885 H   0  0  0  0  0  0                  
   30.8113  -13.5905  -10.5977 H   0  0  0  0  0  0                  
   29.9605  -11.6101   -9.8544 H   0  0  0  0  0  0                  
   29.5779  -10.2594  -10.9135 H   0  0  0  0  0  0                  
   32.4876  -15.4555  -13.3238 H   0  0  0  0  0  0                  
   31.8034  -18.2854  -11.2571 H   0  0  0  0  0  0                  
   31.4752  -17.9097  -12.9187 H   0  0  0  0  0  0                  
   33.1944  -18.1182   -9.6154 H   0  0  0  0  0  0                  
   34.8975  -18.3114   -9.2730 H   0  0  0  0  0  0                  
   34.2303  -16.6961   -9.4790 H   0  0  0  0  0  0                  
   36.6333  -17.8458  -10.9057 H   0  0  0  0  0  0                  
   37.3197  -17.8502  -13.2627 H   0  0  0  0  0  0                  
   36.5825  -17.0325  -15.6215 H   0  0  0  0  0  0                  
   36.0581  -18.7131  -15.7836 H   0  0  0  0  0  0                  
   34.9373  -17.3918  -16.1341 H   0  0  0  0  0  0                  
   33.2224  -17.5740  -14.4697 H   0  0  0  0  0  0                  
  1  2  1  0  0  0
  1 25  1  0  0  0
  1 26  1  0  0  0
  1 27  1  0  0  0
  2  3  1  0  0  0
  2 28  1  0  0  0
  2 29  1  0  0  0
  3  4  1  0  0  0
  4 10  1  0  0  0
  4  5  2  0  0  0
  5  6  1  0  0  0
  6  7  2  0  0  0
  6 13  1  0  0  0
  7  8  1  0  0  0
  7 30  1  0  0  0
  8  9  1  0  0  0
  8 10  2  0  0  0
  9 31  1  0  0  0
  9 32  1  0  0  0
 10 11  1  0  0  0
 11 12  3  0  0  0
 13 14  1  0  0  0
 13 33  1  0  0  0
 14 15  2  0  0  0
 14 16  1  0  0  0
 16 17  1  0  0  0
 16 34  1  0  0  0
 16 35  1  0  0  0
 17 24  1  0  0  0
 17 18  2  0  0  0
 18 19  1  0  0  0
 18 20  1  0  0  0
 19 36  1  0  0  0
 19 37  1  0  0  0
 19 38  1  0  0  0
 20 21  2  0  0  0
 20 39  1  0  0  0
 21 22  1  0  0  0
 21 40  1  0  0  0
 22 23  1  0  0  0
 22 24  2  0  0  0
 23 41  1  0  0  0
 23 42  1  0  0  0
 23 43  1  0  0  0
 24 44  1  0  0  0
M  END
> <i_m_stars>
0

> <r_user_dG.exp>
-7.286071

$$$$
17124-1
                    3D
 Structure written by MMmdl.
 46 47  0  0  1  0            999 V2000
   32.2074  -11.8047  -17.7924 C   0  0  0  0  0  0                  
   32.0322  -12.6075  -16.5014 C   0  0  0  0  0  0                  
   31.4762  -11.7369  -15.5200 O   0  0  0  0  0  0                  
   31.2870  -12.1939  -14.2270 C   0  0  0  0  0  0                  
   31.6368  -13.4824  -13.9616 N   0  0  0  0  0  0                  
   31.4379  -13.9540  -12.7214 C   0  0  0  0  0  0                  
   30.9327  -13.1784  -11.6873 C   0  0  0  0  0  0                  
   30.5762  -11.8697  -11.9596 C   0  0  0  0  0  0                  
   30.0479  -11.1558  -10.8903 N   0  0  0  0  0  0                  
   30.7421  -11.3493  -13.2531 C   0  0  0  0  0  0                  
   30.3602   -9.9899  -13.6175 C   0  0  0  0  0  0                  
   30.0591   -8.9127  -13.9158 N   0  0  0  0  0  0                  
   31.7996  -15.2835  -12.6400 N   0  0  0  0  0  0                  
   31.5584  -16.1908  -11.6897 C   0  0  0  0  0  0                  
   30.9245  -15.9728  -10.6594 O   0  0  0  0  0  0                  
   32.0475  -17.6048  -11.9793 C   0  0  0  0  0  0                  
   33.5524  -17.7002  -12.2159 C   0  0  0  0  0  0                  
   34.0981  -17.4044  -13.4746 C   0  0  0  0  0  0                  
   33.2288  -16.9803  -14.4641 O   0  0  0  0  0  0                  
   33.7502  -16.4897  -15.6974 C   0  0  0  0  0  0                  
   35.4780  -17.5547  -13.6611 C   0  0  0  0  0  0                  
   36.3016  -17.9560  -12.6101 C   0  0  0  0  0  0                  
   38.1703  -18.1459  -12.9361 Br  0  0  0  0  0  0                  
   35.7665  -18.2270  -11.3459 C   0  0  0  0  0  0                  
   34.3827  -18.0990  -11.1638 C   0  0  0  0  0  0                  
   36.6401  -18.5926  -10.3399 O   0  0  0  0  0  0                  
   36.1377  -19.2753   -9.1939 C   0  0  0  0  0  0                  
   32.6317  -12.4221  -18.5835 H   0  0  0  0  0  0                  
   31.2480  -11.4244  -18.1439 H   0  0  0  0  0  0                  
   32.8673  -10.9516  -17.6367 H   0  0  0  0  0  0                  
   31.3719  -13.4608  -16.6709 H   0  0  0  0  0  0                  
   33.0001  -12.9930  -16.1727 H   0  0  0  0  0  0                  
   30.7998  -13.5782  -10.6962 H   0  0  0  0  0  0                  
   30.0036  -11.5811   -9.9694 H   0  0  0  0  0  0                  
   29.6615  -10.2257  -11.0325 H   0  0  0  0  0  0                  
   32.2912  -15.5933  -13.4636 H   0  0  0  0  0  0                  
   31.7526  -18.2772  -11.1781 H   0  0  0  0  0  0                  
   31.5173  -17.9310  -12.8684 H   0  0  0  0  0  0                  
   32.9257  -16.1513  -16.3251 H   0  0  0  0  0  0                  
   34.4137  -15.6368  -15.5459 H   0  0  0  0  0  0                  
   34.2817  -17.2665  -16.2491 H   0  0  0  0  0  0                  
   35.9347  -17.3619  -14.6189 H   0  0  0  0  0  0                  
   33.9420  -18.3168  -10.2034 H   0  0  0  0  0  0                  
   36.9729  -19.5531   -8.5513 H   0  0  0  0  0  0                  
   35.4665  -18.6600   -8.5968 H   0  0  0  0  0  0                  
   35.6232  -20.1950   -9.4696 H   0  0  0  0  0  0                  
  1  2  1  0  0  0
  1 28  1  0  0  0
  1 29  1  0  0  0
  1 30  1  0  0  0
  2  3  1  0  0  0
  2 31  1  0  0  0
  2 32  1  0  0  0
  3  4  1  0  0  0
  4 10  1  0  0  0
  4  5  2  0  0  0
  5  6  1  0  0  0
  6  7  2  0  0  0
  6 13  1  0  0  0
  7  8  1  0  0  0
  7 33  1  0  0  0
  8  9  1  0  0  0
  8 10  2  0  0  0
  9 34  1  0  0  0
  9 35  1  0  0  0
 10 11  1  0  0  0
 11 12  3  0  0  0
 13 14  1  0  0  0
 13 36  1  0  0  0
 14 15  2  0  0  0
 14 16  1  0  0  0
 16 17  1  0  0  0
 16 37  1  0  0  0
 16 38  1  0  0  0
 17 25  1  0  0  0
 17 18  2  0  0  0
 18 19  1  0  0  0
 18 21  1  0  0  0
 19 20  1  0  0  0
 20 39  1  0  0  0
 20 40  1  0  0  0
 20 41  1  0  0  0
 21 22  2  0  0  0
 21 42  1  0  0  0
 22 23  1  0  0  0
 22 24  1  0  0  0
 24 25  2  0  0  0
 24 26  1  0  0  0
 25 43  1  0  0  0
 26 27  1  0  0  0
 27 44  1  0  0  0
 27 45  1  0  0  0
 27 46  1  0  0  0
M  END
> <i_m_stars>
0

> <r_user_dG.exp>
-9.675922

$$$$
18625-1
                    3D
 Structure written by MMmdl.
 38 39  0  0  1  0            999 V2000
   32.1337  -11.7034  -17.7534 C   0  0  0  0  0  0                  
   31.9741  -12.5263  -16.4729 C   0  0  0  0  0  0                  
   31.4311  -11.6704  -15.4703 O   0  0  0  0  0  0                  
   31.2538  -12.1496  -14.1834 C   0  0  0  0  0  0                  
   31.6135  -13.4388  -13.9422 N   0  0  0  0  0  0                  
   31.4241  -13.9355  -12.7124 C   0  0  0  0  0  0                  
   30.9147  -13.1877  -11.6606 C   0  0  0  0  0  0                  
   30.5464  -11.8760  -11.9076 C   0  0  0  0  0  0                  
   30.0102  -11.1868  -10.8260 N   0  0  0  0  0  0                  
   30.7056  -11.3289  -13.1919 C   0  0  0  0  0  0                  
   30.3102   -9.9681  -13.5344 C   0  0  0  0  0  0                  
   29.9984   -8.8900  -13.8174 N   0  0  0  0  0  0                  
   31.7977  -15.2620  -12.6742 N   0  0  0  0  0  0                  
   31.5799  -16.2002  -11.7484 C   0  0  0  0  0  0                  
   30.9810  -16.0137  -10.6912 O   0  0  0  0  0  0                  
   32.0555  -17.6045  -12.1039 C   0  0  0  0  0  0                  
   33.5728  -17.7122  -12.2436 C   0  0  0  0  0  0                  
   34.4164  -17.8081  -11.1229 C   0  0  0  0  0  0                  
   33.7854  -17.8285   -9.5123 Cl  0  0  0  0  0  0                  
   35.7979  -17.8858  -11.2957 C   0  0  0  0  0  0                  
   36.3503  -17.8845  -12.5762 C   0  0  0  0  0  0                  
   35.5177  -17.7944  -13.6900 C   0  0  0  0  0  0                  
   34.1365  -17.7042  -13.5238 C   0  0  0  0  0  0                  
   32.5440  -12.3102  -18.5600 H   0  0  0  0  0  0                  
   31.1710  -11.3136  -18.0849 H   0  0  0  0  0  0                  
   32.8001  -10.8563  -17.5941 H   0  0  0  0  0  0                  
   31.3104  -13.3760  -16.6478 H   0  0  0  0  0  0                  
   32.9453  -12.9192  -16.1633 H   0  0  0  0  0  0                  
   30.7864  -13.6109  -10.6788 H   0  0  0  0  0  0                  
   29.6261  -10.2533  -10.9528 H   0  0  0  0  0  0                  
   29.9911  -11.6173   -9.9062 H   0  0  0  0  0  0                  
   32.2635  -15.5238  -13.5266 H   0  0  0  0  0  0                  
   31.7048  -18.3127  -11.3562 H   0  0  0  0  0  0                  
   31.5641  -17.8795  -13.0326 H   0  0  0  0  0  0                  
   36.4395  -17.9505  -10.4288 H   0  0  0  0  0  0                  
   37.4221  -17.9483  -12.7050 H   0  0  0  0  0  0                  
   35.9423  -17.7807  -14.6847 H   0  0  0  0  0  0                  
   33.5063  -17.6092  -14.3972 H   0  0  0  0  0  0                  
  1  2  1  0  0  0
  1 24  1  0  0  0
  1 25  1  0  0  0
  1 26  1  0  0  0
  2  3  1  0  0  0
  2 27  1  0  0  0
  2 28  1  0  0  0
  3  4  1  0  0  0
  4 10  1  0  0  0
  4  5  2  0  0  0
  5  6  1  0  0  0
  6  7  2  0  0  0
  6 13  1  0  0  0
  7  8  1  0  0  0
  7 29  1  0  0  0
  8  9  1  0  0  0
  8 10  2  0  0  0
  9 30  1  0  0  0
  9 31  1  0  0  0
 10 11  1  0  0  0
 11 12  3  0  0  0
 13 14  1  0  0  0
 13 32  1  0  0  0
 14 15  2  0  0  0
 14 16  1  0  0  0
 16 17  1  0  0  0
 16 33  1  0  0  0
 16 34  1  0  0  0
 17 23  1  0  0  0
 17 18  2  0  0  0
 18 19  1  0  0  0
 18 20  1  0  0  0
 20 21  2  0  0  0
 20 35  1  0  0  0
 21 22  1  0  0  0
 21 36  1  0  0  0
 22 23  2  0  0  0
 22 37  1  0  0  0
 23 38  1  0  0  0
M  END
> <i_m_stars>
0

> <r_user_dG.exp>
-8.105004

$$$$
18659-1
                    3D
 Structure written by MMmdl.
 50 51  0  0  1  0            999 V2000
   32.2638  -13.3177  -19.4773 C   0  0  0  0  0  0                  
   32.9777  -12.3222  -18.7515 O   0  0  0  0  0  0                  
   32.2045  -11.6572  -17.7532 C   0  0  0  0  0  0                  
   32.0271  -12.4983  -16.4758 C   0  0  0  0  0  0                  
   31.4339  -11.6705  -15.4746 O   0  0  0  0  0  0                  
   31.2576  -12.1540  -14.1902 C   0  0  0  0  0  0                  
   31.6183  -13.4439  -13.9501 N   0  0  0  0  0  0                  
   31.4276  -13.9377  -12.7156 C   0  0  0  0  0  0                  
   30.9207  -13.1810  -11.6673 C   0  0  0  0  0  0                  
   30.5514  -11.8714  -11.9168 C   0  0  0  0  0  0                  
   30.0172  -11.1786  -10.8368 N   0  0  0  0  0  0                  
   30.7088  -11.3300  -13.2021 C   0  0  0  0  0  0                  
   30.3137   -9.9699  -13.5485 C   0  0  0  0  0  0                  
   30.0025   -8.8927  -13.8355 N   0  0  0  0  0  0                  
   31.7922  -15.2688  -12.6509 N   0  0  0  0  0  0                  
   31.5478  -16.1895  -11.7129 C   0  0  0  0  0  0                  
   30.9124  -15.9858  -10.6799 O   0  0  0  0  0  0                  
   32.0388  -17.5998  -12.0191 C   0  0  0  0  0  0                  
   33.5466  -17.6861  -12.2375 C   0  0  0  0  0  0                  
   34.1051  -17.3747  -13.4874 C   0  0  0  0  0  0                  
   33.2428  -16.9546  -14.4852 O   0  0  0  0  0  0                  
   33.7754  -16.4480  -15.7073 C   0  0  0  0  0  0                  
   35.4910  -17.5000  -13.6551 C   0  0  0  0  0  0                  
   36.3034  -17.8833  -12.5875 C   0  0  0  0  0  0                  
   35.7559  -18.1789  -11.3417 C   0  0  0  0  0  0                  
   34.3684  -18.0823  -11.1764 C   0  0  0  0  0  0                  
   36.6379  -18.5370  -10.3439 O   0  0  0  0  0  0                  
   36.1459  -19.2481   -9.2103 C   0  0  0  0  0  0                  
   32.9174  -13.7539  -20.2328 H   0  0  0  0  0  0                  
   31.9208  -14.1284  -18.8331 H   0  0  0  0  0  0                  
   31.4001  -12.8944  -19.9931 H   0  0  0  0  0  0                  
   32.7417  -10.7440  -17.4969 H   0  0  0  0  0  0                  
   31.2380  -11.3342  -18.1454 H   0  0  0  0  0  0                  
   31.3961  -13.3675  -16.6678 H   0  0  0  0  0  0                  
   33.0017  -12.8611  -16.1428 H   0  0  0  0  0  0                  
   30.7935  -13.5963  -10.6821 H   0  0  0  0  0  0                  
   29.9925  -11.6091   -9.9172 H   0  0  0  0  0  0                  
   29.6302  -10.2466  -10.9658 H   0  0  0  0  0  0                  
   32.2932  -15.5688  -13.4731 H   0  0  0  0  0  0                  
   31.7348  -18.2856  -11.2326 H   0  0  0  0  0  0                  
   31.5210  -17.9130  -12.9207 H   0  0  0  0  0  0                  
   34.3312  -17.2116  -16.2535 H   0  0  0  0  0  0                  
   34.4197  -15.5837  -15.5401 H   0  0  0  0  0  0                  
   32.9557  -16.1218  -16.3476 H   0  0  0  0  0  0                  
   35.9571  -17.2930  -14.6061 H   0  0  0  0  0  0                  
   37.3727  -17.9602  -12.7214 H   0  0  0  0  0  0                  
   33.9215  -18.3156  -10.2227 H   0  0  0  0  0  0                  
   36.9831  -19.5122   -8.5647 H   0  0  0  0  0  0                  
   35.4534  -18.6592   -8.6107 H   0  0  0  0  0  0                  
   35.6574  -20.1771   -9.5022 H   0  0  0  0  0  0                  
  1  2  1  0  0  0
  1 29  1  0  0  0
  1 30  1  0  0  0
  1 31  1  0  0  0
  2  3  1  0  0  0
  3  4  1  0  0  0
  3 32  1  0  0  0
  3 33  1  0  0  0
  4  5  1  0  0  0
  4 34  1  0  0  0
  4 35  1  0  0  0
  5  6  1  0  0  0
  6 12  1  0  0  0
  6  7  2  0  0  0
  7  8  1  0  0  0
  8  9  2  0  0  0
  8 15  1  0  0  0
  9 10  1  0  0  0
  9 36  1  0  0  0
 10 11  1  0  0  0
 10 12  2  0  0  0
 11 37  1  0  0  0
 11 38  1  0  0  0
 12 13  1  0  0  0
 13 14  3  0  0  0
 15 16  1  0  0  0
 15 39  1  0  0  0
 16 17  2  0  0  0
 16 18  1  0  0  0
 18 19  1  0  0  0
 18 40  1  0  0  0
 18 41  1  0  0  0
 19 26  1  0  0  0
 19 20  2  0  0  0
 20 21  1  0  0  0
 20 23  1  0  0  0
 21 22  1  0  0  0
 22 42  1  0  0  0
 22 43  1  0  0  0
 22 44  1  0  0  0
 23 24  2  0  0  0
 23 45  1  0  0  0
 24 25  1  0  0  0
 24 46  1  0  0  0
 25 26  2  0  0  0
 25 27  1  0  0  0
 26 47  1  0  0  0
 27 28  1  0  0  0
 28 48  1  0  0  0
 28 49  1  0  0  0
 28 50  1  0  0  0
M  END
> <i_m_stars>
0

> <r_user_dG.exp>
-9.465222

$$$$
18637-1
                    3D
 Structure written by MMmdl.
 53 54  0  0  1  0            999 V2000
   32.1883  -11.8052  -17.7956 C   0  0  0  0  0  0                  
   31.9803  -12.6157  -16.5140 C   0  0  0  0  0  0                  
   31.4722  -11.7318  -15.5189 O   0  0  0  0  0  0                  
   31.2821  -12.1898  -14.2266 C   0  0  0  0  0  0                  
   31.6251  -13.4803  -13.9631 N   0  0  0  0  0  0                  
   31.4288  -13.9513  -12.7221 C   0  0  0  0  0  0                  
   30.9290  -13.1740  -11.6867 C   0  0  0  0  0  0                  
   30.5763  -11.8642  -11.9579 C   0  0  0  0  0  0                  
   30.0510  -11.1495  -10.8879 N   0  0  0  0  0  0                  
   30.7428  -11.3436  -13.2513 C   0  0  0  0  0  0                  
   30.3648   -9.9831  -13.6151 C   0  0  0  0  0  0                  
   30.0669   -8.9051  -13.9135 N   0  0  0  0  0  0                  
   31.7876  -15.2814  -12.6395 N   0  0  0  0  0  0                  
   31.5468  -16.1872  -11.6875 C   0  0  0  0  0  0                  
   30.9108  -15.9671  -10.6589 O   0  0  0  0  0  0                  
   32.0384  -17.6019  -11.9740 C   0  0  0  0  0  0                  
   33.5379  -17.6923  -12.2472 C   0  0  0  0  0  0                  
   34.0520  -17.3982  -13.5178 C   0  0  0  0  0  0                  
   33.1566  -16.9844  -14.4887 O   0  0  0  0  0  0                  
   33.6485  -16.4659  -15.7234 C   0  0  0  0  0  0                  
   35.4279  -17.5291  -13.7353 C   0  0  0  0  0  0                  
   36.2946  -17.9068  -12.6997 C   0  0  0  0  0  0                  
   35.7770  -18.1813  -11.4241 C   0  0  0  0  0  0                  
   34.3955  -18.0761  -11.2137 C   0  0  0  0  0  0                  
   36.6719  -18.5272  -10.4241 O   0  0  0  0  0  0                  
   36.1956  -19.2313   -9.2783 C   0  0  0  0  0  0                  
   37.6963  -18.0185  -12.8513 N   0  0  0  0  0  0                  
   38.4944  -17.8621  -13.9200 C   0  0  0  0  0  0                  
   38.1073  -17.6234  -15.0595 O   0  0  0  0  0  0                  
   39.9882  -17.9699  -13.6680 C   0  0  0  0  0  0                  
   32.5480  -12.4390  -18.6058 H   0  0  0  0  0  0                  
   31.2538  -11.3463  -18.1200 H   0  0  0  0  0  0                  
   32.9151  -11.0080  -17.6404 H   0  0  0  0  0  0                  
   31.2751  -13.4313  -16.6891 H   0  0  0  0  0  0                  
   32.9298  -13.0548  -16.1990 H   0  0  0  0  0  0                  
   30.7973  -13.5732  -10.6952 H   0  0  0  0  0  0                  
   29.6652  -10.2190  -11.0298 H   0  0  0  0  0  0                  
   30.0045  -11.5760   -9.9678 H   0  0  0  0  0  0                  
   32.2791  -15.5954  -13.4620 H   0  0  0  0  0  0                  
   31.7666  -18.2686  -11.1597 H   0  0  0  0  0  0                  
   31.4893  -17.9374  -12.8476 H   0  0  0  0  0  0                  
   34.3153  -15.6154  -15.5697 H   0  0  0  0  0  0                  
   34.1685  -17.2301  -16.3031 H   0  0  0  0  0  0                  
   32.8095  -16.1159  -16.3250 H   0  0  0  0  0  0                  
   35.8238  -17.3219  -14.7139 H   0  0  0  0  0  0                  
   33.9771  -18.2931  -10.2429 H   0  0  0  0  0  0                  
   37.0432  -19.5060   -8.6508 H   0  0  0  0  0  0                  
   35.5253  -18.6315   -8.6644 H   0  0  0  0  0  0                  
   35.6874  -20.1539   -9.5568 H   0  0  0  0  0  0                  
   38.1509  -18.2423  -11.9790 H   0  0  0  0  0  0                  
   40.2263  -18.1440  -12.6192 H   0  0  0  0  0  0                  
   40.3997  -18.7876  -14.2574 H   0  0  0  0  0  0                  
   40.4728  -17.0449  -13.9808 H   0  0  0  0  0  0                  
  1  2  1  0  0  0
  1 31  1  0  0  0
  1 32  1  0  0  0
  1 33  1  0  0  0
  2  3  1  0  0  0
  2 34  1  0  0  0
  2 35  1  0  0  0
  3  4  1  0  0  0
  4 10  1  0  0  0
  4  5  2  0  0  0
  5  6  1  0  0  0
  6  7  2  0  0  0
  6 13  1  0  0  0
  7  8  1  0  0  0
  7 36  1  0  0  0
  8  9  1  0  0  0
  8 10  2  0  0  0
  9 37  1  0  0  0
  9 38  1  0  0  0
 10 11  1  0  0  0
 11 12  3  0  0  0
 13 14  1  0  0  0
 13 39  1  0  0  0
 14 15  2  0  0  0
 14 16  1  0  0  0
 16 17  1  0  0  0
 16 40  1  0  0  0
 16 41  1  0  0  0
 17 24  1  0  0  0
 17 18  2  0  0  0
 18 19  1  0  0  0
 18 21  1  0  0  0
 19 20  1  0  0  0
 20 42  1  0  0  0
 20 43  1  0  0  0
 20 44  1  0  0  0
 21 22  2  0  0  0
 21 45  1  0  0  0
 22 23  1  0  0  0
 22 27  1  0  0  0
 23 24  2  0  0  0
 23 25  1  0  0  0
 24 46  1  0  0  0
 25 26  1  0  0  0
 26 47  1  0  0  0
 26 48  1  0  0  0
 26 49  1  0  0  0
 27 28  1  0  0  0
 27 50  1  0  0  0
 28 29  2  0  0  0
 28 30  1  0  0  0
 30 51  1  0  0  0
 30 52  1  0  0  0
 30 53  1  0  0  0
M  END
> <i_m_stars>
0

> <r_user_dG.exp>
-10.141692

$$$$
18638-1
                    3D
 Structure written by MMmdl.
 52 53  0  0  1  0            999 V2000
   32.2098  -11.8084  -17.7901 C   0  0  0  0  0  0                  
   32.0344  -12.6113  -16.4990 C   0  0  0  0  0  0                  
   31.4781  -11.7410  -15.5177 O   0  0  0  0  0  0                  
   31.2890  -12.1979  -14.2246 C   0  0  0  0  0  0                  
   31.6398  -13.4861  -13.9589 N   0  0  0  0  0  0                  
   31.4417  -13.9577  -12.7187 C   0  0  0  0  0  0                  
   30.9354  -13.1821  -11.6848 C   0  0  0  0  0  0                  
   30.5776  -11.8737  -11.9575 C   0  0  0  0  0  0                  
   30.0482  -11.1597  -10.8886 N   0  0  0  0  0  0                  
   30.7436  -11.3534  -13.2510 C   0  0  0  0  0  0                  
   30.3613   -9.9941  -13.6154 C   0  0  0  0  0  0                  
   30.0602   -8.9169  -13.9137 N   0  0  0  0  0  0                  
   31.8055  -15.2869  -12.6368 N   0  0  0  0  0  0                  
   31.5598  -16.1948  -11.6880 C   0  0  0  0  0  0                  
   30.9213  -15.9771  -10.6607 O   0  0  0  0  0  0                  
   32.0492  -17.6086  -11.9748 C   0  0  0  0  0  0                  
   33.5575  -17.7061  -12.1800 C   0  0  0  0  0  0                  
   34.1275  -17.4100  -13.4274 C   0  0  0  0  0  0                  
   33.2765  -16.9848  -14.4327 O   0  0  0  0  0  0                  
   33.8144  -16.5389  -15.6760 C   0  0  0  0  0  0                  
   35.5099  -17.5641  -13.5888 C   0  0  0  0  0  0                  
   36.3124  -17.9723  -12.5182 C   0  0  0  0  0  0                  
   38.0783  -18.1804  -12.7850 S   0  0  0  0  0  0                  
   38.4039  -17.7352  -14.1499 O   0  0  0  0  0  0                  
   38.8044  -17.5962  -11.6459 O   0  0  0  0  0  0                  
   38.3158  -20.0020  -12.7300 C   0  0  0  0  0  0                  
   35.7506  -18.2521  -11.2654 C   0  0  0  0  0  0                  
   34.3643  -18.1141  -11.1138 C   0  0  0  0  0  0                  
   36.5896  -18.6485  -10.2418 O   0  0  0  0  0  0                  
   36.0511  -19.3140   -9.1023 C   0  0  0  0  0  0                  
   32.6336  -12.4260  -18.5812 H   0  0  0  0  0  0                  
   31.2504  -11.4277  -18.1413 H   0  0  0  0  0  0                  
   32.8701  -10.9556  -17.6343 H   0  0  0  0  0  0                  
   31.3742  -13.4648  -16.6688 H   0  0  0  0  0  0                  
   33.0023  -12.9968  -16.1703 H   0  0  0  0  0  0                  
   30.8030  -13.5815  -10.6935 H   0  0  0  0  0  0                  
   30.0047  -11.5840   -9.9671 H   0  0  0  0  0  0                  
   29.6620  -10.2295  -11.0312 H   0  0  0  0  0  0                  
   32.3027  -15.5943  -13.4582 H   0  0  0  0  0  0                  
   31.7375  -18.2839  -11.1828 H   0  0  0  0  0  0                  
   31.5362  -17.9310  -12.8756 H   0  0  0  0  0  0                  
   32.9992  -16.2119  -16.3218 H   0  0  0  0  0  0                  
   34.4849  -15.6883  -15.5459 H   0  0  0  0  0  0                  
   34.3425  -17.3380  -16.1986 H   0  0  0  0  0  0                  
   35.9729  -17.3688  -14.5432 H   0  0  0  0  0  0                  
   37.7137  -20.4677  -13.5075 H   0  0  0  0  0  0                  
   39.3677  -20.2301  -12.8874 H   0  0  0  0  0  0                  
   38.0011  -20.3696  -11.7544 H   0  0  0  0  0  0                  
   33.8998  -18.3367  -10.1663 H   0  0  0  0  0  0                  
   35.5352  -20.2300   -9.3842 H   0  0  0  0  0  0                  
   35.3733  -18.6874   -8.5251 H   0  0  0  0  0  0                  
   36.8676  -19.5962   -8.4380 H   0  0  0  0  0  0                  
  1  2  1  0  0  0
  1 31  1  0  0  0
  1 32  1  0  0  0
  1 33  1  0  0  0
  2  3  1  0  0  0
  2 34  1  0  0  0
  2 35  1  0  0  0
  3  4  1  0  0  0
  4 10  1  0  0  0
  4  5  2  0  0  0
  5  6  1  0  0  0
  6  7  2  0  0  0
  6 13  1  0  0  0
  7  8  1  0  0  0
  7 36  1  0  0  0
  8  9  1  0  0  0
  8 10  2  0  0  0
  9 37  1  0  0  0
  9 38  1  0  0  0
 10 11  1  0  0  0
 11 12  3  0  0  0
 13 14  1  0  0  0
 13 39  1  0  0  0
 14 15  2  0  0  0
 14 16  1  0  0  0
 16 17  1  0  0  0
 16 40  1  0  0  0
 16 41  1  0  0  0
 17 28  1  0  0  0
 17 18  2  0  0  0
 18 19  1  0  0  0
 18 21  1  0  0  0
 19 20  1  0  0  0
 20 42  1  0  0  0
 20 43  1  0  0  0
 20 44  1  0  0  0
 21 22  2  0  0  0
 21 45  1  0  0  0
 22 23  1  0  0  0
 22 27  1  0  0  0
 23 24  2  0  0  0
 23 25  2  0  0  0
 23 26  1  0  0  0
 26 46  1  0  0  0
 26 47  1  0  0  0
 26 48  1  0  0  0
 27 28  2  0  0  0
 27 29  1  0  0  0
 28 49  1  0  0  0
 29 30  1  0  0  0
 30 50  1  0  0  0
 30 51  1  0  0  0
 30 52  1  0  0  0
M  END
> <i_m_stars>
0

> <r_user_dG.exp>
-10.093111

$$$$
18652-1
                    3D
 Structure written by MMmdl.
 55 56  0  0  1  0            999 V2000
   33.2247  -13.2756  -16.4735 C   0  0  0  0  0  0                  
   31.7819  -12.7667  -16.5877 C   0  0  0  0  0  0                  
   30.7712  -13.8942  -16.8418 C   0  0  0  0  0  0                  
   31.4070  -11.8749  -15.5269 O   0  0  0  0  0  0                  
   31.2711  -12.2795  -14.2077 C   0  0  0  0  0  0                  
   31.6307  -13.5505  -13.9037 N   0  0  0  0  0  0                  
   31.4617  -13.9912  -12.6549 C   0  0  0  0  0  0                  
   30.9650  -13.1976  -11.6319 C   0  0  0  0  0  0                  
   30.6009  -11.8958  -11.9348 C   0  0  0  0  0  0                  
   30.0781  -11.1574  -10.8796 N   0  0  0  0  0  0                  
   30.7516  -11.4061  -13.2443 C   0  0  0  0  0  0                  
   30.3744  -10.0521  -13.6335 C   0  0  0  0  0  0                  
   30.0781   -8.9782  -13.9500 N   0  0  0  0  0  0                  
   31.8445  -15.3115  -12.5701 N   0  0  0  0  0  0                  
   31.5695  -16.2271  -11.6421 C   0  0  0  0  0  0                  
   30.8924  -16.0141  -10.6397 O   0  0  0  0  0  0                  
   32.0682  -17.6381  -11.9293 C   0  0  0  0  0  0                  
   33.5794  -17.7339  -12.1192 C   0  0  0  0  0  0                  
   34.1631  -17.4557  -13.3646 C   0  0  0  0  0  0                  
   33.3237  -17.0489  -14.3866 O   0  0  0  0  0  0                  
   33.8510  -16.8507  -15.6966 C   0  0  0  0  0  0                  
   35.5491  -17.6007  -13.5057 C   0  0  0  0  0  0                  
   36.3406  -17.9912  -12.4208 C   0  0  0  0  0  0                  
   38.1121  -18.1822  -12.6596 S   0  0  0  0  0  0                  
   38.8138  -17.5608  -11.5249 O   0  0  0  0  0  0                  
   38.4504  -17.7644  -14.0301 O   0  0  0  0  0  0                  
   38.3749  -19.9986  -12.5597 C   0  0  0  0  0  0                  
   35.7637  -18.2645  -11.1738 C   0  0  0  0  0  0                  
   34.3753  -18.1307  -11.0411 C   0  0  0  0  0  0                  
   36.5901  -18.6487  -10.1355 O   0  0  0  0  0  0                  
   36.0394  -19.3346   -9.0142 C   0  0  0  0  0  0                  
   33.8983  -12.4401  -16.3128 H   0  0  0  0  0  0                  
   33.3620  -13.9684  -15.6468 H   0  0  0  0  0  0                  
   33.5289  -13.7964  -17.3806 H   0  0  0  0  0  0                  
   31.7563  -12.1343  -17.4771 H   0  0  0  0  0  0                  
   29.7876  -13.4754  -17.0389 H   0  0  0  0  0  0                  
   31.0548  -14.4802  -17.7150 H   0  0  0  0  0  0                  
   30.6805  -14.5852  -16.0058 H   0  0  0  0  0  0                  
   30.8488  -13.5793  -10.6314 H   0  0  0  0  0  0                  
   30.0260  -11.5692   -9.9531 H   0  0  0  0  0  0                  
   29.6832  -10.2347  -11.0425 H   0  0  0  0  0  0                  
   32.3610  -15.6058  -13.3841 H   0  0  0  0  0  0                  
   31.7498  -18.3176  -11.1445 H   0  0  0  0  0  0                  
   31.5650  -17.9567  -12.8368 H   0  0  0  0  0  0                  
   34.2740  -17.7712  -16.1021 H   0  0  0  0  0  0                  
   33.0473  -16.5385  -16.3641 H   0  0  0  0  0  0                  
   34.6109  -16.0682  -15.7161 H   0  0  0  0  0  0                  
   36.0252  -17.4085  -14.4540 H   0  0  0  0  0  0                  
   37.7874  -20.4908  -13.3320 H   0  0  0  0  0  0                  
   39.4315  -20.2152  -12.7015 H   0  0  0  0  0  0                  
   38.0558  -20.3485  -11.5792 H   0  0  0  0  0  0                  
   33.9002  -18.3489  -10.0983 H   0  0  0  0  0  0                  
   35.3458  -18.7215   -8.4407 H   0  0  0  0  0  0                  
   35.5374  -20.2517   -9.3184 H   0  0  0  0  0  0                  
   36.8471  -19.6177   -8.3397 H   0  0  0  0  0  0                  
  1  2  1  0  0  0
  1 32  1  0  0  0
  1 33  1  0  0  0
  1 34  1  0  0  0
  2  3  1  0  0  0
  2  4  1  0  0  0
  2 35  1  0  0  0
  3 36  1  0  0  0
  3 37  1  0  0  0
  3 38  1  0  0  0
  4  5  1  0  0  0
  5 11  1  0  0  0
  5  6  2  0  0  0
  6  7  1  0  0  0
  7  8  2  0  0  0
  7 14  1  0  0  0
  8  9  1  0  0  0
  8 39  1  0  0  0
  9 10  1  0  0  0
  9 11  2  0  0  0
 10 40  1  0  0  0
 10 41  1  0  0  0
 11 12  1  0  0  0
 12 13  3  0  0  0
 14 15  1  0  0  0
 14 42  1  0  0  0
 15 16  2  0  0  0
 15 17  1  0  0  0
 17 18  1  0  0  0
 17 43  1  0  0  0
 17 44  1  0  0  0
 18 29  1  0  0  0
 18 19  2  0  0  0
 19 20  1  0  0  0
 19 22  1  0  0  0
 20 21  1  0  0  0
 21 45  1  0  0  0
 21 46  1  0  0  0
 21 47  1  0  0  0
 22 23  2  0  0  0
 22 48  1  0  0  0
 23 24  1  0  0  0
 23 28  1  0  0  0
 24 25  2  0  0  0
 24 26  2  0  0  0
 24 27  1  0  0  0
 27 49  1  0  0  0
 27 50  1  0  0  0
 27 51  1  0  0  0
 28 29  2  0  0  0
 28 30  1  0  0  0
 29 52  1  0  0  0
 30 31  1  0  0  0
 31 53  1  0  0  0
 31 54  1  0  0  0
 31 55  1  0  0  0
M  END
> <i_m_stars>
0

> <r_user_dG.exp>
-10.682977

$$$$
18627-1
                    3D
 Structure written by MMmdl.
 38 39  0  0  1  0            999 V2000
   32.2266  -11.9130  -17.6680 C   0  0  0  0  0  0                  
   32.0717  -12.6869  -16.3567 C   0  0  0  0  0  0                  
   31.4890  -11.8073  -15.3986 O   0  0  0  0  0  0                  
   31.2879  -12.2441  -14.1006 C   0  0  0  0  0  0                  
   31.6617  -13.5195  -13.8042 N   0  0  0  0  0  0                  
   31.4444  -13.9723  -12.5611 C   0  0  0  0  0  0                  
   30.8932  -13.1950  -11.5542 C   0  0  0  0  0  0                  
   30.5205  -11.8981  -11.8551 C   0  0  0  0  0  0                  
   29.9606  -11.1804  -10.8058 N   0  0  0  0  0  0                  
   30.7100  -11.3925  -13.1516 C   0  0  0  0  0  0                  
   30.3256  -10.0405  -13.5416 C   0  0  0  0  0  0                  
   30.0239   -8.9690  -13.8599 N   0  0  0  0  0  0                  
   31.8853  -15.2713  -12.4186 N   0  0  0  0  0  0                  
   31.5342  -16.1998  -11.5222 C   0  0  0  0  0  0                  
   30.6483  -16.0301  -10.6872 O   0  0  0  0  0  0                  
   32.2656  -17.5494  -11.5451 C   0  0  0  0  0  0                  
   33.4248  -17.6507  -12.5361 C   0  0  0  0  0  0                  
   33.1821  -17.6991  -13.9150 C   0  0  0  0  0  0                  
   34.2483  -17.7740  -14.8126 C   0  0  0  0  0  0                  
   35.5585  -17.8035  -14.3366 C   0  0  0  0  0  0                  
   36.8794  -17.8835  -15.4404 Cl  0  0  0  0  0  0                  
   35.8041  -17.7613  -12.9653 C   0  0  0  0  0  0                  
   34.7409  -17.6851  -12.0653 C   0  0  0  0  0  0                  
   32.6690  -12.5394  -18.4419 H   0  0  0  0  0  0                  
   31.2573  -11.5694  -18.0302 H   0  0  0  0  0  0                  
   32.8623  -11.0382  -17.5347 H   0  0  0  0  0  0                  
   31.4357  -13.5621  -16.5067 H   0  0  0  0  0  0                  
   33.0485  -13.0376  -16.0157 H   0  0  0  0  0  0                  
   30.7525  -13.5843  -10.5596 H   0  0  0  0  0  0                  
   29.9308  -11.5859   -9.8750 H   0  0  0  0  0  0                  
   29.5842  -10.2480  -10.9611 H   0  0  0  0  0  0                  
   32.5765  -15.5074  -13.1070 H   0  0  0  0  0  0                  
   32.6206  -17.7492  -10.5345 H   0  0  0  0  0  0                  
   31.5348  -18.3221  -11.7669 H   0  0  0  0  0  0                  
   32.1681  -17.6753  -14.2914 H   0  0  0  0  0  0                  
   34.0675  -17.8090  -15.8777 H   0  0  0  0  0  0                  
   36.8222  -17.7872  -12.6054 H   0  0  0  0  0  0                  
   34.9451  -17.6573  -11.0037 H   0  0  0  0  0  0                  
  1  2  1  0  0  0
  1 24  1  0  0  0
  1 25  1  0  0  0
  1 26  1  0  0  0
  2  3  1  0  0  0
  2 27  1  0  0  0
  2 28  1  0  0  0
  3  4  1  0  0  0
  4 10  1  0  0  0
  4  5  2  0  0  0
  5  6  1  0  0  0
  6  7  2  0  0  0
  6 13  1  0  0  0
  7  8  1  0  0  0
  7 29  1  0  0  0
  8  9  1  0  0  0
  8 10  2  0  0  0
  9 30  1  0  0  0
  9 31  1  0  0  0
 10 11  1  0  0  0
 11 12  3  0  0  0
 13 14  1  0  0  0
 13 32  1  0  0  0
 14 15  2  0  0  0
 14 16  1  0  0  0
 16 17  1  0  0  0
 16 33  1  0  0  0
 16 34  1  0  0  0
 17 23  1  0  0  0
 17 18  2  0  0  0
 18 19  1  0  0  0
 18 35  1  0  0  0
 19 20  2  0  0  0
 19 36  1  0  0  0
 20 21  1  0  0  0
 20 22  1  0  0  0
 22 23  2  0  0  0
 22 37  1  0  0  0
 23 38  1  0  0  0
M  END
> <i_m_stars>
0

> <r_user_dG.exp>
-8.483096

$$$$
18658-1
                    3D
 Structure written by MMmdl.
 47 48  0  0  1  0            999 V2000
   31.3732  -13.0160  -19.0367 O   0  0  0  0  0  0                  
   31.3231  -12.0778  -17.9729 C   0  0  0  0  0  0                  
   31.4813  -12.7695  -16.6101 C   0  0  0  0  0  0                  
   31.3040  -11.7971  -15.5774 O   0  0  0  0  0  0                  
   31.2253  -12.2141  -14.2600 C   0  0  0  0  0  0                  
   31.5778  -13.5008  -13.9936 N   0  0  0  0  0  0                  
   31.4371  -13.9534  -12.7381 C   0  0  0  0  0  0                  
   30.9787  -13.1615  -11.6944 C   0  0  0  0  0  0                  
   30.6190  -11.8535  -11.9691 C   0  0  0  0  0  0                  
   30.1208  -11.1265  -10.8947 N   0  0  0  0  0  0                  
   30.7425  -11.3481  -13.2731 C   0  0  0  0  0  0                  
   30.3573   -9.9904  -13.6403 C   0  0  0  0  0  0                  
   30.0537   -8.9149  -13.9418 N   0  0  0  0  0  0                  
   31.7958  -15.2837  -12.6510 N   0  0  0  0  0  0                  
   31.5535  -16.1857  -11.6956 C   0  0  0  0  0  0                  
   30.9181  -15.9612  -10.6670 O   0  0  0  0  0  0                  
   32.0452  -17.6014  -11.9774 C   0  0  0  0  0  0                  
   33.5517  -17.6919  -12.2057 C   0  0  0  0  0  0                  
   34.1039  -17.3866  -13.4599 C   0  0  0  0  0  0                  
   33.2361  -16.9743  -14.4560 O   0  0  0  0  0  0                  
   33.7616  -16.4832  -15.6873 C   0  0  0  0  0  0                  
   35.4893  -17.5104  -13.6336 C   0  0  0  0  0  0                  
   36.3070  -17.8920  -12.5693 C   0  0  0  0  0  0                  
   35.7650  -18.1872  -11.3210 C   0  0  0  0  0  0                  
   34.3786  -18.0882  -11.1489 C   0  0  0  0  0  0                  
   36.6506  -18.5480  -10.3276 O   0  0  0  0  0  0                  
   36.1606  -19.2550   -9.1905 C   0  0  0  0  0  0                  
   30.5259  -13.4978  -19.0760 H   0  0  0  0  0  0                  
   32.1143  -11.3380  -18.1065 H   0  0  0  0  0  0                  
   30.3754  -11.5375  -18.0141 H   0  0  0  0  0  0                  
   30.7327  -13.5596  -16.5141 H   0  0  0  0  0  0                  
   32.4652  -13.2362  -16.5315 H   0  0  0  0  0  0                  
   30.8831  -13.5501  -10.6944 H   0  0  0  0  0  0                  
   30.0641  -11.5555   -9.9764 H   0  0  0  0  0  0                  
   29.7134  -10.2062  -11.0428 H   0  0  0  0  0  0                  
   32.2931  -15.6010  -13.4694 H   0  0  0  0  0  0                  
   31.7478  -18.2719  -11.1756 H   0  0  0  0  0  0                  
   31.5220  -17.9322  -12.8690 H   0  0  0  0  0  0                  
   34.3109  -17.2550  -16.2286 H   0  0  0  0  0  0                  
   32.9385  -16.1614  -16.3255 H   0  0  0  0  0  0                  
   34.4103  -15.6194  -15.5344 H   0  0  0  0  0  0                  
   35.9510  -17.3051  -14.5873 H   0  0  0  0  0  0                  
   37.3756  -17.9697  -12.7084 H   0  0  0  0  0  0                  
   33.9366  -18.3209  -10.1929 H   0  0  0  0  0  0                  
   37.0002  -19.5288   -8.5519 H   0  0  0  0  0  0                  
   35.4796  -18.6583   -8.5853 H   0  0  0  0  0  0                  
   35.6590  -20.1783   -9.4791 H   0  0  0  0  0  0                  
  1  2  1  0  0  0
  1 28  1  0  0  0
  2  3  1  0  0  0
  2 29  1  0  0  0
  2 30  1  0  0  0
  3  4  1  0  0  0
  3 31  1  0  0  0
  3 32  1  0  0  0
  4  5  1  0  0  0
  5 11  1  0  0  0
  5  6  2  0  0  0
  6  7  1  0  0  0
  7  8  2  0  0  0
  7 14  1  0  0  0
  8  9  1  0  0  0
  8 33  1  0  0  0
  9 10  1  0  0  0
  9 11  2  0  0  0
 10 34  1  0  0  0
 10 35  1  0  0  0
 11 12  1  0  0  0
 12 13  3  0  0  0
 14 15  1  0  0  0
 14 36  1  0  0  0
 15 16  2  0  0  0
 15 17  1  0  0  0
 17 18  1  0  0  0
 17 37  1  0  0  0
 17 38  1  0  0  0
 18 25  1  0  0  0
 18 19  2  0  0  0
 19 20  1  0  0  0
 19 22  1  0  0  0
 20 21  1  0  0  0
 21 39  1  0  0  0
 21 40  1  0  0  0
 21 41  1  0  0  0
 22 23  2  0  0  0
 22 42  1  0  0  0
 23 24  1  0  0  0
 23 43  1  0  0  0
 24 25  2  0  0  0
 24 26  1  0  0  0
 25 44  1  0  0  0
 26 27  1  0  0  0
 27 45  1  0  0  0
 27 46  1  0  0  0
 27 47  1  0  0  0
M  END
> <i_m_stars>
0

> <r_user_dG.exp>
-9.699398

$$$$
18630-1
                    3D
 Structure written by MMmdl.
 41 42  0  0  1  0            999 V2000
   32.2105  -11.8932  -17.6537 C   0  0  0  0  0  0                  
   32.0586  -12.6680  -16.3424 C   0  0  0  0  0  0                  
   31.4752  -11.7901  -15.3825 O   0  0  0  0  0  0                  
   31.2768  -12.2296  -14.0850 C   0  0  0  0  0  0                  
   31.6553  -13.5036  -13.7917 N   0  0  0  0  0  0                  
   31.4423  -13.9611  -12.5497 C   0  0  0  0  0  0                  
   30.8871  -13.1901  -11.5407 C   0  0  0  0  0  0                  
   30.5087  -11.8940  -11.8382 C   0  0  0  0  0  0                  
   29.9451  -11.1829  -10.7868 N   0  0  0  0  0  0                  
   30.6961  -11.3832  -13.1332 C   0  0  0  0  0  0                  
   30.3066  -10.0321  -13.5205 C   0  0  0  0  0  0                  
   30.0007   -8.9612  -13.8371 N   0  0  0  0  0  0                  
   31.8918  -15.2566  -12.4100 N   0  0  0  0  0  0                  
   31.5497  -16.1934  -11.5192 C   0  0  0  0  0  0                  
   30.6638  -16.0361  -10.6813 O   0  0  0  0  0  0                  
   32.2978  -17.5349  -11.5565 C   0  0  0  0  0  0                  
   33.3725  -17.6433  -12.6385 C   0  0  0  0  0  0                  
   34.7236  -17.6786  -12.2839 C   0  0  0  0  0  0                  
   35.7056  -17.7427  -13.2725 C   0  0  0  0  0  0                  
   35.3451  -17.7697  -14.6219 C   0  0  0  0  0  0                  
   36.4145  -17.8287  -15.6946 C   0  0  0  0  0  0                  
   33.9956  -17.7461  -14.9785 C   0  0  0  0  0  0                  
   33.0140  -17.6825  -13.9909 C   0  0  0  0  0  0                  
   32.6531  -12.5187  -18.4282 H   0  0  0  0  0  0                  
   31.2402  -11.5512  -18.0146 H   0  0  0  0  0  0                  
   32.8449  -11.0174  -17.5208 H   0  0  0  0  0  0                  
   31.4242  -13.5444  -16.4922 H   0  0  0  0  0  0                  
   33.0366  -13.0173  -16.0030 H   0  0  0  0  0  0                  
   30.7487  -13.5842  -10.5478 H   0  0  0  0  0  0                  
   29.9233  -11.5893   -9.8561 H   0  0  0  0  0  0                  
   29.5684  -10.2498  -10.9387 H   0  0  0  0  0  0                  
   32.5826  -15.4926  -13.1005 H   0  0  0  0  0  0                  
   32.7325  -17.7039  -10.5715 H   0  0  0  0  0  0                  
   31.5663  -18.3250  -11.7057 H   0  0  0  0  0  0                  
   35.0186  -17.6547  -11.2441 H   0  0  0  0  0  0                  
   36.7482  -17.7670  -12.9890 H   0  0  0  0  0  0                  
   36.6713  -18.8652  -15.9133 H   0  0  0  0  0  0                  
   36.0742  -17.3586  -16.6183 H   0  0  0  0  0  0                  
   37.3200  -17.3098  -15.3789 H   0  0  0  0  0  0                  
   33.7089  -17.7747  -16.0208 H   0  0  0  0  0  0                  
   31.9717  -17.6542  -14.2768 H   0  0  0  0  0  0                  
  1  2  1  0  0  0
  1 24  1  0  0  0
  1 25  1  0  0  0
  1 26  1  0  0  0
  2  3  1  0  0  0
  2 27  1  0  0  0
  2 28  1  0  0  0
  3  4  1  0  0  0
  4 10  1  0  0  0
  4  5  2  0  0  0
  5  6  1  0  0  0
  6  7  2  0  0  0
  6 13  1  0  0  0
  7  8  1  0  0  0
  7 29  1  0  0  0
  8  9  1  0  0  0
  8 10  2  0  0  0
  9 30  1  0  0  0
  9 31  1  0  0  0
 10 11  1  0  0  0
 11 12  3  0  0  0
 13 14  1  0  0  0
 13 32  1  0  0  0
 14 15  2  0  0  0
 14 16  1  0  0  0
 16 17  1  0  0  0
 16 33  1  0  0  0
 16 34  1  0  0  0
 17 23  1  0  0  0
 17 18  2  0  0  0
 18 19  1  0  0  0
 18 35  1  0  0  0
 19 20  2  0  0  0
 19 36  1  0  0  0
 20 21  1  0  0  0
 20 22  1  0  0  0
 21 37  1  0  0  0
 21 38  1  0  0  0
 21 39  1  0  0  0
 22 23  2  0  0  0
 22 40  1  0  0  0
 23 41  1  0  0  0
M  END
> <i_m_stars>
0

> <r_user_dG.exp>
-9.142359

$$$$
18639-1
                    3D
 Structure written by MMmdl.
 48 49  0  0  1  0            999 V2000
   32.8723  -12.8794  -16.8568 C   0  0  0  0  0  0                  
   31.3803  -12.6876  -16.5765 C   0  0  0  0  0  0                  
   31.2105  -11.7514  -15.5126 O   0  0  0  0  0  0                  
   31.1704  -12.1861  -14.1986 C   0  0  0  0  0  0                  
   31.5422  -13.4717  -13.9499 N   0  0  0  0  0  0                  
   31.4169  -13.9412  -12.7001 C   0  0  0  0  0  0                  
   30.9607  -13.1678  -11.6419 C   0  0  0  0  0  0                  
   30.5848  -11.8605  -11.8972 C   0  0  0  0  0  0                  
   30.0813  -11.1551  -10.8113 N   0  0  0  0  0  0                  
   30.6930  -11.3367  -13.1952 C   0  0  0  0  0  0                  
   30.2946   -9.9774  -13.5423 C   0  0  0  0  0  0                  
   29.9807   -8.9007  -13.8287 N   0  0  0  0  0  0                  
   31.7827  -15.2710  -12.6390 N   0  0  0  0  0  0                  
   31.5472  -16.1885  -11.6967 C   0  0  0  0  0  0                  
   30.9226  -15.9792  -10.6592 O   0  0  0  0  0  0                  
   32.0328  -17.6000  -12.0025 C   0  0  0  0  0  0                  
   33.5402  -17.6893  -12.2190 C   0  0  0  0  0  0                  
   34.0989  -17.3985  -13.4690 C   0  0  0  0  0  0                  
   33.2373  -16.9965  -14.4752 O   0  0  0  0  0  0                  
   33.7653  -16.5296  -15.7152 C   0  0  0  0  0  0                  
   35.4839  -17.5219  -13.6278 C   0  0  0  0  0  0                  
   36.3250  -17.8797  -12.5604 C   0  0  0  0  0  0                  
   37.7928  -17.9537  -12.7936 N   0  3  0  0  0  0                  
   38.5641  -17.8957  -11.8411 O   0  5  0  0  0  0                  
   38.1924  -18.0426  -13.9517 O   0  0  0  0  0  0                  
   35.7510  -18.1593  -11.3028 C   0  0  0  0  0  0                  
   34.3606  -18.0640  -11.1543 C   0  0  0  0  0  0                  
   36.5764  -18.5008  -10.2483 O   0  0  0  0  0  0                  
   36.0609  -19.2711   -9.1647 C   0  0  0  0  0  0                  
   33.0296  -13.5483  -17.7022 H   0  0  0  0  0  0                  
   33.3339  -11.9200  -17.0848 H   0  0  0  0  0  0                  
   33.3822  -13.3021  -15.9914 H   0  0  0  0  0  0                  
   30.9023  -12.2669  -17.4621 H   0  0  0  0  0  0                  
   30.8716  -13.6372  -16.3945 H   0  0  0  0  0  0                  
   30.8745  -13.5700  -10.6467 H   0  0  0  0  0  0                  
   30.0479  -11.5902   -9.8938 H   0  0  0  0  0  0                  
   29.6679  -10.2353  -10.9463 H   0  0  0  0  0  0                  
   32.2634  -15.5684  -13.4729 H   0  0  0  0  0  0                  
   31.7286  -18.2833  -11.2143 H   0  0  0  0  0  0                  
   31.5117  -17.9133  -12.9020 H   0  0  0  0  0  0                  
   34.4277  -15.6736  -15.5780 H   0  0  0  0  0  0                  
   34.2999  -17.3171  -16.2487 H   0  0  0  0  0  0                  
   32.9442  -16.2039  -16.3543 H   0  0  0  0  0  0                  
   35.9269  -17.3186  -14.5903 H   0  0  0  0  0  0                  
   33.9039  -18.2797  -10.2017 H   0  0  0  0  0  0                  
   36.8791  -19.5255   -8.4915 H   0  0  0  0  0  0                  
   35.3211  -18.7329   -8.5737 H   0  0  0  0  0  0                  
   35.6269  -20.2080   -9.5104 H   0  0  0  0  0  0                  
  1  2  1  0  0  0
  1 30  1  0  0  0
  1 31  1  0  0  0
  1 32  1  0  0  0
  2  3  1  0  0  0
  2 33  1  0  0  0
  2 34  1  0  0  0
  3  4  1  0  0  0
  4 10  1  0  0  0
  4  5  2  0  0  0
  5  6  1  0  0  0
  6  7  2  0  0  0
  6 13  1  0  0  0
  7  8  1  0  0  0
  7 35  1  0  0  0
  8  9  1  0  0  0
  8 10  2  0  0  0
  9 36  1  0  0  0
  9 37  1  0  0  0
 10 11  1  0  0  0
 11 12  3  0  0  0
 13 14  1  0  0  0
 13 38  1  0  0  0
 14 15  2  0  0  0
 14 16  1  0  0  0
 16 17  1  0  0  0
 16 39  1  0  0  0
 16 40  1  0  0  0
 17 27  1  0  0  0
 17 18  2  0  0  0
 18 19  1  0  0  0
 18 21  1  0  0  0
 19 20  1  0  0  0
 20 41  1  0  0  0
 20 42  1  0  0  0
 20 43  1  0  0  0
 21 22  2  0  0  0
 21 44  1  0  0  0
 22 23  1  0  0  0
 22 26  1  0  0  0
 23 24  1  0  0  0
 23 25  2  0  0  0
 26 27  2  0  0  0
 26 28  1  0  0  0
 27 45  1  0  0  0
 28 29  1  0  0  0
 29 46  1  0  0  0
 29 47  1  0  0  0
 29 48  1  0  0  0
M  CHG  2  23   1  24  -1
M  END
> <i_m_stars>
0

> <r_user_dG.exp>
-9.740725

$$$$
18631-1
                    3D
 Structure written by MMmdl.
 42 43  0  0  1  0            999 V2000
   32.2007  -11.7910  -17.7952 C   0  0  0  0  0  0                  
   32.0237  -12.5937  -16.5042 C   0  0  0  0  0  0                  
   31.4677  -11.7229  -15.5231 O   0  0  0  0  0  0                  
   31.2793  -12.1796  -14.2299 C   0  0  0  0  0  0                  
   31.6287  -13.4679  -13.9644 N   0  0  0  0  0  0                  
   31.4312  -13.9392  -12.7235 C   0  0  0  0  0  0                  
   30.9280  -13.1630  -11.6893 C   0  0  0  0  0  0                  
   30.5714  -11.8548  -11.9619 C   0  0  0  0  0  0                  
   30.0445  -11.1418  -10.8918 N   0  0  0  0  0  0                  
   30.7352  -11.3349  -13.2560 C   0  0  0  0  0  0                  
   30.3507   -9.9765  -13.6209 C   0  0  0  0  0  0                  
   30.0474   -8.9002  -13.9201 N   0  0  0  0  0  0                  
   31.7914  -15.2681  -12.6384 N   0  0  0  0  0  0                  
   31.5491  -16.1749  -11.6880 C   0  0  0  0  0  0                  
   30.9063  -15.9586  -10.6623 O   0  0  0  0  0  0                  
   32.0483  -17.5870  -11.9743 C   0  0  0  0  0  0                  
   33.5436  -17.6681  -12.2759 C   0  0  0  0  0  0                  
   34.0369  -17.3675  -13.5571 C   0  0  0  0  0  0                  
   33.1270  -16.9477  -14.5107 O   0  0  0  0  0  0                  
   33.6051  -16.3701  -15.7234 C   0  0  0  0  0  0                  
   35.4107  -17.5064  -13.8038 C   0  0  0  0  0  0                  
   36.2812  -17.8978  -12.7871 C   0  0  0  0  0  0                  
   35.7861  -18.1661  -11.5138 C   0  0  0  0  0  0                  
   34.4211  -18.0586  -11.2596 C   0  0  0  0  0  0                  
   32.6253  -12.4088  -18.5859 H   0  0  0  0  0  0                  
   31.2419  -11.4100  -18.1473 H   0  0  0  0  0  0                  
   32.8612  -10.9386  -17.6386 H   0  0  0  0  0  0                  
   31.3627  -13.4465  -16.6741 H   0  0  0  0  0  0                  
   32.9911  -12.9799  -16.1749 H   0  0  0  0  0  0                  
   30.7973  -13.5628  -10.6979 H   0  0  0  0  0  0                  
   29.9994  -11.5693   -9.9723 H   0  0  0  0  0  0                  
   29.6563  -10.2123  -11.0336 H   0  0  0  0  0  0                  
   32.2883  -15.5839  -13.4573 H   0  0  0  0  0  0                  
   31.7961  -18.2495  -11.1498 H   0  0  0  0  0  0                  
   31.4870  -17.9335  -12.8357 H   0  0  0  0  0  0                  
   34.2581  -15.5159  -15.5353 H   0  0  0  0  0  0                  
   34.1355  -17.1007  -16.3360 H   0  0  0  0  0  0                  
   32.7577  -16.0094  -16.3066 H   0  0  0  0  0  0                  
   35.8220  -17.3080  -14.7813 H   0  0  0  0  0  0                  
   37.3397  -17.9938  -12.9864 H   0  0  0  0  0  0                  
   36.4581  -18.4762  -10.7258 H   0  0  0  0  0  0                  
   34.0470  -18.2971  -10.2728 H   0  0  0  0  0  0                  
  1  2  1  0  0  0
  1 25  1  0  0  0
  1 26  1  0  0  0
  1 27  1  0  0  0
  2  3  1  0  0  0
  2 28  1  0  0  0
  2 29  1  0  0  0
  3  4  1  0  0  0
  4 10  1  0  0  0
  4  5  2  0  0  0
  5  6  1  0  0  0
  6  7  2  0  0  0
  6 13  1  0  0  0
  7  8  1  0  0  0
  7 30  1  0  0  0
  8  9  1  0  0  0
  8 10  2  0  0  0
  9 31  1  0  0  0
  9 32  1  0  0  0
 10 11  1  0  0  0
 11 12  3  0  0  0
 13 14  1  0  0  0
 13 33  1  0  0  0
 14 15  2  0  0  0
 14 16  1  0  0  0
 16 17  1  0  0  0
 16 34  1  0  0  0
 16 35  1  0  0  0
 17 24  1  0  0  0
 17 18  2  0  0  0
 18 19  1  0  0  0
 18 21  1  0  0  0
 19 20  1  0  0  0
 20 36  1  0  0  0
 20 37  1  0  0  0
 20 38  1  0  0  0
 21 22  2  0  0  0
 21 39  1  0  0  0
 22 23  1  0  0  0
 22 40  1  0  0  0
 23 24  2  0  0  0
 23 41  1  0  0  0
 24 42  1  0  0  0
M  END
> <i_m_stars>
0

> <r_user_dG.exp>
-9.413821

$$$$
18632-1
                    3D
 Structure written by MMmdl.
 42 43  0  0  1  0            999 V2000
   30.9768  -13.7055  -16.8089 C   0  0  0  0  0  0                  
   32.0372  -12.7235  -16.2922 C   0  0  0  0  0  0                  
   31.4805  -11.8326  -15.3217 O   0  0  0  0  0  0                  
   31.2860  -12.2484  -14.0148 C   0  0  0  0  0  0                  
   31.6904  -13.5058  -13.6951 N   0  0  0  0  0  0                  
   31.4671  -13.9522  -12.4541 C   0  0  0  0  0  0                  
   30.8831  -13.1845  -11.4614 C   0  0  0  0  0  0                  
   30.4887  -11.8982  -11.7801 C   0  0  0  0  0  0                  
   29.8997  -11.1875  -10.7436 N   0  0  0  0  0  0                  
   30.6839  -11.3987  -13.0794 C   0  0  0  0  0  0                  
   30.2812  -10.0574  -13.4868 C   0  0  0  0  0  0                  
   29.9653   -8.9938  -13.8191 N   0  0  0  0  0  0                  
   31.9341  -15.2366  -12.3044 N   0  0  0  0  0  0                  
   31.5411  -16.1981  -11.4651 C   0  0  0  0  0  0                  
   30.6140  -16.0567  -10.6709 O   0  0  0  0  0  0                  
   32.2809  -17.5449  -11.5128 C   0  0  0  0  0  0                  
   33.3563  -17.6502  -12.5941 C   0  0  0  0  0  0                  
   34.7094  -17.5122  -12.2649 C   0  0  0  0  0  0                  
   35.7050  -17.6709  -13.2247 C   0  0  0  0  0  0                  
   37.0042  -17.5596  -12.7803 O   0  0  0  0  0  0                  
   38.0659  -17.6848  -13.7198 C   0  0  0  0  0  0                  
   35.3298  -17.9424  -14.5489 C   0  0  0  0  0  0                  
   33.9825  -18.0583  -14.8936 C   0  0  0  0  0  0                  
   32.9981  -17.9153  -13.9171 C   0  0  0  0  0  0                  
   31.3753  -14.3300  -17.6078 H   0  0  0  0  0  0                  
   30.6265  -14.3675  -16.0174 H   0  0  0  0  0  0                  
   30.1119  -13.1715  -17.2020 H   0  0  0  0  0  0                  
   32.9203  -13.2448  -15.9154 H   0  0  0  0  0  0                  
   32.3896  -12.1136  -17.1245 H   0  0  0  0  0  0                  
   30.7356  -13.5746  -10.4684 H   0  0  0  0  0  0                  
   29.8890  -11.5807   -9.8069 H   0  0  0  0  0  0                  
   29.5258  -10.2549  -10.9049 H   0  0  0  0  0  0                  
   32.6506  -15.4532  -12.9748 H   0  0  0  0  0  0                  
   32.7123  -17.7244  -10.5288 H   0  0  0  0  0  0                  
   31.5472  -18.3297  -11.6765 H   0  0  0  0  0  0                  
   35.0069  -17.3049  -11.2472 H   0  0  0  0  0  0                  
   39.0201  -17.5912  -13.2025 H   0  0  0  0  0  0                  
   38.0575  -18.6572  -14.2104 H   0  0  0  0  0  0                  
   38.0233  -16.8997  -14.4761 H   0  0  0  0  0  0                  
   36.0730  -18.0730  -15.3201 H   0  0  0  0  0  0                  
   33.7017  -18.2679  -15.9167 H   0  0  0  0  0  0                  
   31.9578  -18.0158  -14.1946 H   0  0  0  0  0  0                  
  1  2  1  0  0  0
  1 25  1  0  0  0
  1 26  1  0  0  0
  1 27  1  0  0  0
  2  3  1  0  0  0
  2 28  1  0  0  0
  2 29  1  0  0  0
  3  4  1  0  0  0
  4 10  1  0  0  0
  4  5  2  0  0  0
  5  6  1  0  0  0
  6  7  2  0  0  0
  6 13  1  0  0  0
  7  8  1  0  0  0
  7 30  1  0  0  0
  8  9  1  0  0  0
  8 10  2  0  0  0
  9 31  1  0  0  0
  9 32  1  0  0  0
 10 11  1  0  0  0
 11 12  3  0  0  0
 13 14  1  0  0  0
 13 33  1  0  0  0
 14 15  2  0  0  0
 14 16  1  0  0  0
 16 17  1  0  0  0
 16 34  1  0  0  0
 16 35  1  0  0  0
 17 24  1  0  0  0
 17 18  2  0  0  0
 18 19  1  0  0  0
 18 36  1  0  0  0
 19 20  1  0  0  0
 19 22  2  0  0  0
 20 21  1  0  0  0
 21 37  1  0  0  0
 21 38  1  0  0  0
 21 39  1  0  0  0
 22 23  1  0  0  0
 22 40  1  0  0  0
 23 24  2  0  0  0
 23 41  1  0  0  0
 24 42  1  0  0  0
M  END
> <i_m_stars>
0

> <r_user_dG.exp>
-9.083236

$$$$
18636-1
                    3D
 Structure written by MMmdl.
 38 39  0  0  1  0            999 V2000
   32.1328  -11.7081  -17.7460 C   0  0  0  0  0  0                  
   31.9790  -12.5326  -16.4656 C   0  0  0  0  0  0                  
   31.4351  -11.6796  -15.4612 O   0  0  0  0  0  0                  
   31.2595  -12.1604  -14.1749 C   0  0  0  0  0  0                  
   31.6240  -13.4489  -13.9345 N   0  0  0  0  0  0                  
   31.4349  -13.9463  -12.7050 C   0  0  0  0  0  0                  
   30.9201  -13.2017  -11.6532 C   0  0  0  0  0  0                  
   30.5481  -11.8906  -11.8994 C   0  0  0  0  0  0                  
   30.0080  -11.2026  -10.8186 N   0  0  0  0  0  0                  
   30.7085  -11.3418  -13.1830 C   0  0  0  0  0  0                  
   30.3128   -9.9806  -13.5242 C   0  0  0  0  0  0                  
   30.0011   -8.9022  -13.8062 N   0  0  0  0  0  0                  
   31.8172  -15.2701  -12.6707 N   0  0  0  0  0  0                  
   31.6114  -16.2123  -11.7467 C   0  0  0  0  0  0                  
   31.0223  -16.0300  -10.6842 O   0  0  0  0  0  0                  
   32.0875  -17.6150  -12.1089 C   0  0  0  0  0  0                  
   33.6059  -17.7297  -12.2252 C   0  0  0  0  0  0                  
   34.4307  -17.8298  -11.0908 C   0  0  0  0  0  0                  
   33.7149  -17.8438   -9.3232 Br  0  0  0  0  0  0                  
   35.8149  -17.9128  -11.2400 C   0  0  0  0  0  0                  
   36.3880  -17.9093  -12.5113 C   0  0  0  0  0  0                  
   35.5761  -17.8115  -13.6382 C   0  0  0  0  0  0                  
   36.3588  -17.7946  -15.3714 Br  0  0  0  0  0  0                  
   34.1930  -17.7196  -13.4959 C   0  0  0  0  0  0                  
   32.5449  -12.3124  -18.5536 H   0  0  0  0  0  0                  
   31.1678  -11.3229  -18.0757 H   0  0  0  0  0  0                  
   32.7952  -10.8578  -17.5871 H   0  0  0  0  0  0                  
   31.3180  -13.3845  -16.6399 H   0  0  0  0  0  0                  
   32.9523  -12.9221  -16.1582 H   0  0  0  0  0  0                  
   30.7913  -13.6264  -10.6721 H   0  0  0  0  0  0                  
   29.9929  -11.6298   -9.8970 H   0  0  0  0  0  0                  
   29.6250  -10.2686  -10.9459 H   0  0  0  0  0  0                  
   32.2776  -15.5217  -13.5280 H   0  0  0  0  0  0                  
   31.7211  -18.3257  -11.3707 H   0  0  0  0  0  0                  
   31.6069  -17.8842  -13.0450 H   0  0  0  0  0  0                  
   36.4425  -17.9812  -10.3624 H   0  0  0  0  0  0                  
   37.4602  -17.9761  -12.6287 H   0  0  0  0  0  0                  
   33.5855  -17.6211  -14.3842 H   0  0  0  0  0  0                  
  1  2  1  0  0  0
  1 25  1  0  0  0
  1 26  1  0  0  0
  1 27  1  0  0  0
  2  3  1  0  0  0
  2 28  1  0  0  0
  2 29  1  0  0  0
  3  4  1  0  0  0
  4 10  1  0  0  0
  4  5  2  0  0  0
  5  6  1  0  0  0
  6  7  2  0  0  0
  6 13  1  0  0  0
  7  8  1  0  0  0
  7 30  1  0  0  0
  8  9  1  0  0  0
  8 10  2  0  0  0
  9 31  1  0  0  0
  9 32  1  0  0  0
 10 11  1  0  0  0
 11 12  3  0  0  0
 13 14  1  0  0  0
 13 33  1  0  0  0
 14 15  2  0  0  0
 14 16  1  0  0  0
 16 17  1  0  0  0
 16 34  1  0  0  0
 16 35  1  0  0  0
 17 24  1  0  0  0
 17 18  2  0  0  0
 18 19  1  0  0  0
 18 20  1  0  0  0
 20 21  2  0  0  0
 20 36  1  0  0  0
 21 22  1  0  0  0
 21 37  1  0  0  0
 22 23  1  0  0  0
 22 24  2  0  0  0
 24 38  1  0  0  0
M  END
> <i_m_stars>
0

> <r_user_dG.exp>
-7.512318

$$$$
18626-1
                    3D
 Structure written by MMmdl.
 38 39  0  0  1  0            999 V2000
   32.1231  -11.7115  -17.7305 C   0  0  0  0  0  0                  
   31.9760  -12.5237  -16.4414 C   0  0  0  0  0  0                  
   31.4232  -11.6655  -15.4470 O   0  0  0  0  0  0                  
   31.2505  -12.1339  -14.1557 C   0  0  0  0  0  0                  
   31.6258  -13.4170  -13.8999 N   0  0  0  0  0  0                  
   31.4374  -13.8993  -12.6634 C   0  0  0  0  0  0                  
   30.9172  -13.1464  -11.6223 C   0  0  0  0  0  0                  
   30.5339  -11.8441  -11.8853 C   0  0  0  0  0  0                  
   29.9859  -11.1560  -10.8109 N   0  0  0  0  0  0                  
   30.6906  -11.3083  -13.1745 C   0  0  0  0  0  0                  
   30.2808   -9.9554  -13.5317 C   0  0  0  0  0  0                  
   29.9576   -8.8839  -13.8265 N   0  0  0  0  0  0                  
   31.8216  -15.2200  -12.6014 N   0  0  0  0  0  0                  
   31.5387  -16.1615  -11.6964 C   0  0  0  0  0  0                  
   30.8770  -15.9742  -10.6776 O   0  0  0  0  0  0                  
   32.0068  -17.5737  -12.0311 C   0  0  0  0  0  0                  
   33.4583  -17.6530  -12.4835 C   0  0  0  0  0  0                  
   34.4818  -17.7367  -11.5359 C   0  0  0  0  0  0                  
   35.8134  -17.7772  -11.9429 C   0  0  0  0  0  0                  
   37.0714  -17.8372  -10.7652 Cl  0  0  0  0  0  0                  
   36.1278  -17.7527  -13.3012 C   0  0  0  0  0  0                  
   35.1105  -17.6789  -14.2547 C   0  0  0  0  0  0                  
   33.7774  -17.6265  -13.8462 C   0  0  0  0  0  0                  
   32.5423  -12.3202  -18.5312 H   0  0  0  0  0  0                  
   31.1547  -11.3396  -18.0654 H   0  0  0  0  0  0                  
   32.7769  -10.8530  -17.5799 H   0  0  0  0  0  0                  
   31.3231  -13.3836  -16.6072 H   0  0  0  0  0  0                  
   32.9527  -12.9001  -16.1290 H   0  0  0  0  0  0                  
   30.7915  -13.5608  -10.6361 H   0  0  0  0  0  0                  
   29.9668  -11.5839   -9.8899 H   0  0  0  0  0  0                  
   29.5937  -10.2260  -10.9421 H   0  0  0  0  0  0                  
   32.3512  -15.4746  -13.4141 H   0  0  0  0  0  0                  
   31.8497  -18.2340  -11.1800 H   0  0  0  0  0  0                  
   31.3499  -17.9102  -12.8241 H   0  0  0  0  0  0                  
   34.2508  -17.7761  -10.4823 H   0  0  0  0  0  0                  
   37.1626  -17.7835  -13.6095 H   0  0  0  0  0  0                  
   35.3565  -17.6554  -15.3081 H   0  0  0  0  0  0                  
   32.9975  -17.5687  -14.5937 H   0  0  0  0  0  0                  
  1  2  1  0  0  0
  1 24  1  0  0  0
  1 25  1  0  0  0
  1 26  1  0  0  0
  2  3  1  0  0  0
  2 27  1  0  0  0
  2 28  1  0  0  0
  3  4  1  0  0  0
  4 10  1  0  0  0
  4  5  2  0  0  0
  5  6  1  0  0  0
  6  7  2  0  0  0
  6 13  1  0  0  0
  7  8  1  0  0  0
  7 29  1  0  0  0
  8  9  1  0  0  0
  8 10  2  0  0  0
  9 30  1  0  0  0
  9 31  1  0  0  0
 10 11  1  0  0  0
 11 12  3  0  0  0
 13 14  1  0  0  0
 13 32  1  0  0  0
 14 15  2  0  0  0
 14 16  1  0  0  0
 16 17  1  0  0  0
 16 33  1  0  0  0
 16 34  1  0  0  0
 17 23  1  0  0  0
 17 18  2  0  0  0
 18 19  1  0  0  0
 18 35  1  0  0  0
 19 20  1  0  0  0
 19 21  2  0  0  0
 21 22  1  0  0  0
 21 36  1  0  0  0
 22 23  2  0  0  0
 22 37  1  0  0  0
 23 38  1  0  0  0
M  END
> <i_m_stars>
0

> <r_user_dG.exp>
-8.872536

$$$$