18629-1
                    3D
 Structure written by MMmdl.
 41 42  0  0  1  0            999 V2000
    9.2000    0.7682    0.5693 C   0  0  0  0  0  0                  
    9.0451    0.0030    1.8858 C   0  0  0  0  0  0                  
    8.4558    0.8862    2.8371 O   0  0  0  0  0  0                  
    8.2537    0.4550    4.1369 C   0  0  0  0  0  0                  
    8.6316   -0.8173    4.4385 N   0  0  0  0  0  0                  
    8.4166   -1.2667    5.6831 C   0  0  0  0  0  0                  
    7.8591   -0.4896    6.6862 C   0  0  0  0  0  0                  
    7.4812    0.8047    6.3801 C   0  0  0  0  0  0                  
    6.9159    1.5227    7.4261 N   0  0  0  0  0  0                  
    7.6716    1.3075    5.0825 C   0  0  0  0  0  0                  
    7.2847    2.6574    4.6879 C   0  0  0  0  0  0                  
    6.9810    3.7276    4.3663 N   0  0  0  0  0  0                  
    8.8653   -2.5616    5.8325 N   0  0  0  0  0  0                  
    8.4994   -3.4975    6.7141 C   0  0  0  0  0  0                  
    7.6004   -3.3330    7.5367 O   0  0  0  0  0  0                  
    9.2295   -4.8487    6.6857 C   0  0  0  0  0  0                  
   10.4129   -4.9357    5.7213 C   0  0  0  0  0  0                  
   10.2141   -4.8740    4.3358 C   0  0  0  0  0  0                  
   11.3050   -4.8994    3.4643 C   0  0  0  0  0  0                  
   11.0975   -4.7815    1.9674 C   0  0  0  0  0  0                  
   12.5966   -5.0285    3.9780 C   0  0  0  0  0  0                  
   12.7990   -5.1127    5.3552 C   0  0  0  0  0  0                  
   11.7105   -5.0624    6.2248 C   0  0  0  0  0  0                  
    9.6470    0.1381   -0.1989 H   0  0  0  0  0  0                  
    8.2301    1.1047    0.2023 H   0  0  0  0  0  0                  
    9.8315    1.6467    0.6980 H   0  0  0  0  0  0                  
    8.4139   -0.8763    1.7398 H   0  0  0  0  0  0                  
   10.0227   -0.3411    2.2314 H   0  0  0  0  0  0                  
    7.7190   -0.8781    7.6810 H   0  0  0  0  0  0                  
    6.8889    1.1201    8.3583 H   0  0  0  0  0  0                  
    6.5393    2.4547    7.2685 H   0  0  0  0  0  0                  
    9.5728   -2.7965    5.1592 H   0  0  0  0  0  0                  
    9.5619   -5.0636    7.7003 H   0  0  0  0  0  0                  
    8.5045   -5.6169    6.4330 H   0  0  0  0  0  0                  
    9.2128   -4.7856    3.9368 H   0  0  0  0  0  0                  
   10.1420   -4.3142    1.7287 H   0  0  0  0  0  0                  
   11.8815   -4.1729    1.5140 H   0  0  0  0  0  0                  
   11.1229   -5.7687    1.5056 H   0  0  0  0  0  0                  
   13.4456   -5.0550    3.3093 H   0  0  0  0  0  0                  
   13.8010   -5.2110    5.7485 H   0  0  0  0  0  0                  
   11.8819   -5.1249    7.2905 H   0  0  0  0  0  0                  
  1  2  1  0  0  0
  1 24  1  0  0  0
  1 25  1  0  0  0
  1 26  1  0  0  0
  2  3  1  0  0  0
  2 27  1  0  0  0
  2 28  1  0  0  0
  3  4  1  0  0  0
  4 10  1  0  0  0
  4  5  2  0  0  0
  5  6  1  0  0  0
  6  7  2  0  0  0
  6 13  1  0  0  0
  7  8  1  0  0  0
  7 29  1  0  0  0
  8  9  1  0  0  0
  8 10  2  0  0  0
  9 30  1  0  0  0
  9 31  1  0  0  0
 10 11  1  0  0  0
 11 12  3  0  0  0
 13 14  1  0  0  0
 13 32  1  0  0  0
 14 15  2  0  0  0
 14 16  1  0  0  0
 16 17  1  0  0  0
 16 33  1  0  0  0
 16 34  1  0  0  0
 17 23  1  0  0  0
 17 18  2  0  0  0
 18 19  1  0  0  0
 18 35  1  0  0  0
 19 20  1  0  0  0
 19 21  2  0  0  0
 20 36  1  0  0  0
 20 37  1  0  0  0
 20 38  1  0  0  0
 21 22  1  0  0  0
 21 39  1  0  0  0
 22 23  2  0  0  0
 22 40  1  0  0  0
 23 41  1  0  0  0
M  END
> <i_m_stars>
0

> <r_user_dG.exp>
-8.67377

$$$$
18634-1
                    3D
 Structure written by MMmdl.
 46 47  0  0  1  0            999 V2000
    9.1552    0.9054    0.4240 C   0  0  0  0  0  0                  
    8.9571    0.0978    1.7089 C   0  0  0  0  0  0                  
    8.4327    0.9778    2.6992 O   0  0  0  0  0  0                  
    8.2406    0.5196    3.9912 C   0  0  0  0  0  0                  
    8.5810   -0.7718    4.2542 N   0  0  0  0  0  0                  
    8.3807   -1.2435    5.4943 C   0  0  0  0  0  0                  
    7.8822   -0.4658    6.5300 C   0  0  0  0  0  0                  
    7.5342    0.8452    6.2596 C   0  0  0  0  0  0                  
    7.0121    1.5605    7.3306 N   0  0  0  0  0  0                  
    7.7019    1.3661    4.9665 C   0  0  0  0  0  0                  
    7.3261    2.7273    4.6033 C   0  0  0  0  0  0                  
    7.0297    3.8058    4.3052 N   0  0  0  0  0  0                  
    8.7368   -2.5739    5.5768 N   0  0  0  0  0  0                  
    8.5029   -3.4777    6.5325 C   0  0  0  0  0  0                  
    7.8630   -3.2597    7.5596 O   0  0  0  0  0  0                  
    9.0142   -4.8867    6.2558 C   0  0  0  0  0  0                  
   10.5059   -4.9431    5.9372 C   0  0  0  0  0  0                  
   10.9738   -4.6818    4.6397 C   0  0  0  0  0  0                  
   10.0417   -4.3300    3.6803 O   0  0  0  0  0  0                  
   10.4911   -3.7597    2.4527 C   0  0  0  0  0  0                  
   12.3489   -4.7797    4.3864 C   0  0  0  0  0  0                  
   13.2441   -5.0654    5.4179 C   0  0  0  0  0  0                  
   12.7808   -5.2772    6.7236 C   0  0  0  0  0  0                  
   11.4098   -5.2412    6.9609 C   0  0  0  0  0  0                  
   13.5904   -5.5191    7.8132 O   0  0  0  0  0  0                  
   14.9997   -5.3766    7.6717 C   0  0  0  0  0  0                  
    9.5378    0.2758   -0.3792 H   0  0  0  0  0  0                  
    8.2116    1.3377    0.0890 H   0  0  0  0  0  0                  
    9.8599    1.7224    0.5798 H   0  0  0  0  0  0                  
    8.2666   -0.7308    1.5353 H   0  0  0  0  0  0                  
    9.9129   -0.3236    2.0295 H   0  0  0  0  0  0                  
    7.7488   -0.8657    7.5209 H   0  0  0  0  0  0                  
    6.6269    2.4915    7.1895 H   0  0  0  0  0  0                  
    6.9645    1.1333    8.2502 H   0  0  0  0  0  0                  
    9.2278   -2.8884    4.7545 H   0  0  0  0  0  0                  
    8.7842   -5.5435    7.0913 H   0  0  0  0  0  0                  
    8.4459   -5.2474    5.4057 H   0  0  0  0  0  0                  
   11.0360   -4.4863    1.8482 H   0  0  0  0  0  0                  
    9.6290   -3.4328    1.8713 H   0  0  0  0  0  0                  
   11.1225   -2.8846    2.6193 H   0  0  0  0  0  0                  
   12.7428   -4.6144    3.3950 H   0  0  0  0  0  0                  
   14.2980   -5.1084    5.1900 H   0  0  0  0  0  0                  
   11.0585   -5.4434    7.9622 H   0  0  0  0  0  0                  
   15.4098   -6.1132    6.9794 H   0  0  0  0  0  0                  
   15.2716   -4.3756    7.3332 H   0  0  0  0  0  0                  
   15.4762   -5.5355    8.6390 H   0  0  0  0  0  0                  
  1  2  1  0  0  0
  1 27  1  0  0  0
  1 28  1  0  0  0
  1 29  1  0  0  0
  2  3  1  0  0  0
  2 30  1  0  0  0
  2 31  1  0  0  0
  3  4  1  0  0  0
  4 10  1  0  0  0
  4  5  2  0  0  0
  5  6  1  0  0  0
  6  7  2  0  0  0
  6 13  1  0  0  0
  7  8  1  0  0  0
  7 32  1  0  0  0
  8  9  1  0  0  0
  8 10  2  0  0  0
  9 33  1  0  0  0
  9 34  1  0  0  0
 10 11  1  0  0  0
 11 12  3  0  0  0
 13 14  1  0  0  0
 13 35  1  0  0  0
 14 15  2  0  0  0
 14 16  1  0  0  0
 16 17  1  0  0  0
 16 36  1  0  0  0
 16 37  1  0  0  0
 17 24  1  0  0  0
 17 18  2  0  0  0
 18 19  1  0  0  0
 18 21  1  0  0  0
 19 20  1  0  0  0
 20 38  1  0  0  0
 20 39  1  0  0  0
 20 40  1  0  0  0
 21 22  2  0  0  0
 21 41  1  0  0  0
 22 23  1  0  0  0
 22 42  1  0  0  0
 23 24  2  0  0  0
 23 25  1  0  0  0
 24 43  1  0  0  0
 25 26  1  0  0  0
 26 44  1  0  0  0
 26 45  1  0  0  0
 26 46  1  0  0  0
M  END
> <i_m_stars>
0

> <r_user_dG.exp>
-9.993231

$$$$
18628-1
                    3D
 Structure written by MMmdl.
 41 42  0  0  1  0            999 V2000
    9.1162    0.8917    0.5736 C   0  0  0  0  0  0                  
    8.9852    0.1010    1.8775 C   0  0  0  0  0  0                  
    8.4073    0.9631    2.8552 O   0  0  0  0  0  0                  
    8.2274    0.5060    4.1497 C   0  0  0  0  0  0                  
    8.6318   -0.7631    4.4244 N   0  0  0  0  0  0                  
    8.4386   -1.2397    5.6617 C   0  0  0  0  0  0                  
    7.8708   -0.4970    6.6847 C   0  0  0  0  0  0                  
    7.4664    0.7973    6.4060 C   0  0  0  0  0  0                  
    6.8933    1.4880    7.4668 N   0  0  0  0  0  0                  
    7.6395    1.3291    5.1165 C   0  0  0  0  0  0                  
    7.2289    2.6788    4.7465 C   0  0  0  0  0  0                  
    6.9069    3.7484    4.4420 N   0  0  0  0  0  0                  
    8.9269   -2.5224    5.7694 N   0  0  0  0  0  0                  
    8.6337   -3.4964    6.6356 C   0  0  0  0  0  0                  
    7.7841   -3.3812    7.5167 O   0  0  0  0  0  0                  
    9.3944   -4.8280    6.5005 C   0  0  0  0  0  0                  
   10.3264   -4.9325    5.2759 C   0  0  0  0  0  0                  
   11.7166   -5.1246    5.3978 C   0  0  0  0  0  0                  
   12.3972   -5.2731    6.7471 C   0  0  0  0  0  0                  
   12.5159   -5.1598    4.2505 C   0  0  0  0  0  0                  
   11.9520   -5.0113    2.9862 C   0  0  0  0  0  0                  
   10.5776   -4.8440    2.8573 C   0  0  0  0  0  0                  
    9.7714   -4.8176    3.9931 C   0  0  0  0  0  0                  
    9.7462    1.7702    0.7090 H   0  0  0  0  0  0                  
    9.5539    0.2785   -0.2135 H   0  0  0  0  0  0                  
    8.1394    1.2312    0.2283 H   0  0  0  0  0  0                  
    8.3552   -0.7781    1.7250 H   0  0  0  0  0  0                  
    9.9697   -0.2455    2.2003 H   0  0  0  0  0  0                  
    7.7471   -0.9100    7.6716 H   0  0  0  0  0  0                  
    6.5137    2.4215    7.3255 H   0  0  0  0  0  0                  
    6.8930    1.0795    8.3972 H   0  0  0  0  0  0                  
    9.5916   -2.7266    5.0436 H   0  0  0  0  0  0                  
    9.9198   -4.9886    7.4392 H   0  0  0  0  0  0                  
    8.6543   -5.6228    6.4402 H   0  0  0  0  0  0                  
   11.9070   -6.0299    7.3604 H   0  0  0  0  0  0                  
   13.4417   -5.5706    6.6481 H   0  0  0  0  0  0                  
   12.3759   -4.3173    7.2637 H   0  0  0  0  0  0                  
   13.5852   -5.2936    4.3351 H   0  0  0  0  0  0                  
   12.5806   -5.0262    2.1061 H   0  0  0  0  0  0                  
   10.1440   -4.7309    1.8742 H   0  0  0  0  0  0                  
    8.7052   -4.6816    3.8802 H   0  0  0  0  0  0                  
  1  2  1  0  0  0
  1 24  1  0  0  0
  1 25  1  0  0  0
  1 26  1  0  0  0
  2  3  1  0  0  0
  2 27  1  0  0  0
  2 28  1  0  0  0
  3  4  1  0  0  0
  4 10  1  0  0  0
  4  5  2  0  0  0
  5  6  1  0  0  0
  6  7  2  0  0  0
  6 13  1  0  0  0
  7  8  1  0  0  0
  7 29  1  0  0  0
  8  9  1  0  0  0
  8 10  2  0  0  0
  9 30  1  0  0  0
  9 31  1  0  0  0
 10 11  1  0  0  0
 11 12  3  0  0  0
 13 14  1  0  0  0
 13 32  1  0  0  0
 14 15  2  0  0  0
 14 16  1  0  0  0
 16 17  1  0  0  0
 16 33  1  0  0  0
 16 34  1  0  0  0
 17 23  1  0  0  0
 17 18  2  0  0  0
 18 19  1  0  0  0
 18 20  1  0  0  0
 19 35  1  0  0  0
 19 36  1  0  0  0
 19 37  1  0  0  0
 20 21  2  0  0  0
 20 38  1  0  0  0
 21 22  1  0  0  0
 21 39  1  0  0  0
 22 23  2  0  0  0
 22 40  1  0  0  0
 23 41  1  0  0  0
M  END
> <i_m_stars>
0

> <r_user_dG.exp>
-8.702592

$$$$
18660-1
                    3D
 Structure written by MMmdl.
 52 53  0  0  1  0            999 V2000
    6.2754    2.1632    0.9601 C   0  0  0  0  0  0                  
    7.6047    1.4118   -0.0422 S   0  0  0  0  0  0                  
    7.0672    1.1878   -1.3923 O   0  0  0  0  0  0                  
    8.8256    2.2051    0.1450 O   0  0  0  0  0  0                  
    7.8866   -0.2116    0.7514 C   0  0  0  0  0  0                  
    8.9226   -0.1173    1.8741 C   0  0  0  0  0  0                  
    8.4230    0.7841    2.8689 O   0  0  0  0  0  0                  
    8.2745    0.3913    4.1851 C   0  0  0  0  0  0                  
    8.6573   -0.8701    4.4899 N   0  0  0  0  0  0                  
    8.4619   -1.3178    5.7288 C   0  0  0  0  0  0                  
    7.9167   -0.5449    6.7433 C   0  0  0  0  0  0                  
    7.5325    0.7509    6.4383 C   0  0  0  0  0  0                  
    6.9583    1.4719    7.4788 N   0  0  0  0  0  0                  
    7.7123    1.2512    5.1366 C   0  0  0  0  0  0                  
    7.3260    2.6008    4.7432 C   0  0  0  0  0  0                  
    7.0222    3.6705    4.4204 N   0  0  0  0  0  0                  
    8.8684   -2.6267    5.8052 N   0  0  0  0  0  0                  
    8.5071   -3.5780    6.6585 C   0  0  0  0  0  0                  
    7.7252   -3.3965    7.5873 O   0  0  0  0  0  0                  
    9.0414   -4.9765    6.3672 C   0  0  0  0  0  0                  
   10.5532   -5.0423    6.1547 C   0  0  0  0  0  0                  
   11.1168   -4.7196    4.9098 C   0  0  0  0  0  0                  
   10.2546   -4.3095    3.9087 O   0  0  0  0  0  0                  
   10.7776   -3.9344    2.6369 C   0  0  0  0  0  0                  
   12.5060   -4.8228    4.7513 C   0  0  0  0  0  0                  
   13.3156   -5.2089    5.8198 C   0  0  0  0  0  0                  
   12.7622   -5.5280    7.0568 C   0  0  0  0  0  0                  
   11.3729   -5.4445    7.2138 C   0  0  0  0  0  0                  
   13.6384   -5.8994    8.0548 O   0  0  0  0  0  0                  
   13.1330   -6.6010    9.1883 C   0  0  0  0  0  0                  
    5.4055    1.5110    0.9530 H   0  0  0  0  0  0                  
    6.6269    2.2969    1.9790 H   0  0  0  0  0  0                  
    6.0244    3.1341    0.5398 H   0  0  0  0  0  0                  
    6.9330   -0.5970    1.1038 H   0  0  0  0  0  0                  
    8.2375   -0.8842   -0.0280 H   0  0  0  0  0  0                  
    9.1601   -1.1291    2.2038 H   0  0  0  0  0  0                  
    9.8673    0.2807    1.5007 H   0  0  0  0  0  0                  
    7.7764   -0.9398    7.7350 H   0  0  0  0  0  0                  
    6.5819    2.4022    7.3138 H   0  0  0  0  0  0                  
    6.9389    1.0797    8.4164 H   0  0  0  0  0  0                  
    9.4497   -2.8950    5.0263 H   0  0  0  0  0  0                  
    8.7453   -5.6652    7.1515 H   0  0  0  0  0  0                  
    8.5367   -5.2986    5.4627 H   0  0  0  0  0  0                  
   11.3050   -4.7604    2.1573 H   0  0  0  0  0  0                  
    9.9548   -3.6497    1.9813 H   0  0  0  0  0  0                  
   11.4454   -3.0752    2.7121 H   0  0  0  0  0  0                  
   12.9769   -4.6014    3.8061 H   0  0  0  0  0  0                  
   14.3865   -5.2740    5.6922 H   0  0  0  0  0  0                  
   10.9225   -5.6999    8.1595 H   0  0  0  0  0  0                  
   13.9653   -6.8933    9.8282 H   0  0  0  0  0  0                  
   12.4625   -5.9905    9.7924 H   0  0  0  0  0  0                  
   12.6133   -7.5132    8.8943 H   0  0  0  0  0  0                  
  1  2  1  0  0  0
  1 31  1  0  0  0
  1 32  1  0  0  0
  1 33  1  0  0  0
  2  3  2  0  0  0
  2  4  2  0  0  0
  2  5  1  0  0  0
  5  6  1  0  0  0
  5 34  1  0  0  0
  5 35  1  0  0  0
  6  7  1  0  0  0
  6 36  1  0  0  0
  6 37  1  0  0  0
  7  8  1  0  0  0
  8 14  1  0  0  0
  8  9  2  0  0  0
  9 10  1  0  0  0
 10 11  2  0  0  0
 10 17  1  0  0  0
 11 12  1  0  0  0
 11 38  1  0  0  0
 12 13  1  0  0  0
 12 14  2  0  0  0
 13 39  1  0  0  0
 13 40  1  0  0  0
 14 15  1  0  0  0
 15 16  3  0  0  0
 17 18  1  0  0  0
 17 41  1  0  0  0
 18 19  2  0  0  0
 18 20  1  0  0  0
 20 21  1  0  0  0
 20 42  1  0  0  0
 20 43  1  0  0  0
 21 28  1  0  0  0
 21 22  2  0  0  0
 22 23  1  0  0  0
 22 25  1  0  0  0
 23 24  1  0  0  0
 24 44  1  0  0  0
 24 45  1  0  0  0
 24 46  1  0  0  0
 25 26  2  0  0  0
 25 47  1  0  0  0
 26 27  1  0  0  0
 26 48  1  0  0  0
 27 28  2  0  0  0
 27 29  1  0  0  0
 28 49  1  0  0  0
 29 30  1  0  0  0
 30 50  1  0  0  0
 30 51  1  0  0  0
 30 52  1  0  0  0
M  END
> <i_m_stars>
0

> <r_user_dG.exp>
-8.702592

$$$$
18624-1
                    3D
 Structure written by MMmdl.
 38 39  0  0  1  0            999 V2000
    9.1663    0.8225    0.5666 C   0  0  0  0  0  0                  
    9.0160    0.0446    1.8762 C   0  0  0  0  0  0                  
    8.4350    0.9203    2.8392 O   0  0  0  0  0  0                  
    8.2388    0.4779    4.1361 C   0  0  0  0  0  0                  
    8.6195   -0.7961    4.4262 N   0  0  0  0  0  0                  
    8.4090   -1.2565    5.6676 C   0  0  0  0  0  0                  
    7.8534   -0.4884    6.6789 C   0  0  0  0  0  0                  
    7.4729    0.8080    6.3846 C   0  0  0  0  0  0                  
    6.9095    1.5171    7.4376 N   0  0  0  0  0  0                  
    7.6584    1.3216    5.0903 C   0  0  0  0  0  0                  
    7.2671    2.6731    4.7061 C   0  0  0  0  0  0                  
    6.9600    3.7443    4.3917 N   0  0  0  0  0  0                  
    8.8626   -2.5513    5.8031 N   0  0  0  0  0  0                  
    8.5298   -3.4902    6.6951 C   0  0  0  0  0  0                  
    7.6490   -3.3366    7.5391 O   0  0  0  0  0  0                  
    9.2820   -4.8293    6.6516 C   0  0  0  0  0  0                  
   10.3472   -4.9369    5.5590 C   0  0  0  0  0  0                  
    9.9767   -4.9752    4.2093 C   0  0  0  0  0  0                  
   10.9492   -5.0455    3.2126 C   0  0  0  0  0  0                  
   12.2992   -5.0782    3.5604 C   0  0  0  0  0  0                  
   12.6752   -5.0463    4.9038 C   0  0  0  0  0  0                  
   11.7021   -4.9758    5.9012 C   0  0  0  0  0  0                  
    9.6074    0.1989   -0.2103 H   0  0  0  0  0  0                  
    8.1957    1.1660    0.2081 H   0  0  0  0  0  0                  
    9.8015    1.6977    0.7006 H   0  0  0  0  0  0                  
    8.3808   -0.8311    1.7253 H   0  0  0  0  0  0                  
    9.9944   -0.3061    2.2130 H   0  0  0  0  0  0                  
    7.7171   -0.8847    7.6711 H   0  0  0  0  0  0                  
    6.8895    1.1100    8.3681 H   0  0  0  0  0  0                  
    6.5323    2.4502    7.2873 H   0  0  0  0  0  0                  
    9.5497   -2.7840    5.1076 H   0  0  0  0  0  0                  
    9.7259   -4.9964    7.6329 H   0  0  0  0  0  0                  
    8.5507   -5.6212    6.5109 H   0  0  0  0  0  0                  
    8.9320   -4.9431    3.9333 H   0  0  0  0  0  0                  
   10.6597   -5.0736    2.1710 H   0  0  0  0  0  0                  
   13.0543   -5.1269    2.7878 H   0  0  0  0  0  0                  
   13.7220   -5.0733    5.1718 H   0  0  0  0  0  0                  
   12.0066   -4.9507    6.9383 H   0  0  0  0  0  0                  
  1  2  1  0  0  0
  1 23  1  0  0  0
  1 24  1  0  0  0
  1 25  1  0  0  0
  2  3  1  0  0  0
  2 26  1  0  0  0
  2 27  1  0  0  0
  3  4  1  0  0  0
  4 10  1  0  0  0
  4  5  2  0  0  0
  5  6  1  0  0  0
  6  7  2  0  0  0
  6 13  1  0  0  0
  7  8  1  0  0  0
  7 28  1  0  0  0
  8  9  1  0  0  0
  8 10  2  0  0  0
  9 29  1  0  0  0
  9 30  1  0  0  0
 10 11  1  0  0  0
 11 12  3  0  0  0
 13 14  1  0  0  0
 13 31  1  0  0  0
 14 15  2  0  0  0
 14 16  1  0  0  0
 16 17  1  0  0  0
 16 32  1  0  0  0
 16 33  1  0  0  0
 17 22  1  0  0  0
 17 18  2  0  0  0
 18 19  1  0  0  0
 18 34  1  0  0  0
 19 20  2  0  0  0
 19 35  1  0  0  0
 20 21  1  0  0  0
 20 36  1  0  0  0
 21 22  2  0  0  0
 21 37  1  0  0  0
 22 38  1  0  0  0
M  END
> <i_m_stars>
2

> <r_user_dG.exp>
-8.49337

$$$$
18633-1
                    3D
 Structure written by MMmdl.
 42 43  0  0  1  0            999 V2000
    9.1879    0.7850    0.5689 C   0  0  0  0  0  0                  
    9.0326    0.0172    1.8839 C   0  0  0  0  0  0                  
    8.4480    0.9003    2.8382 O   0  0  0  0  0  0                  
    8.2454    0.4666    4.1370 C   0  0  0  0  0  0                  
    8.6202   -0.8074    4.4362 N   0  0  0  0  0  0                  
    8.4029   -1.2589    5.6795 C   0  0  0  0  0  0                  
    7.8486   -0.4821    6.6844 C   0  0  0  0  0  0                  
    7.4745    0.8135    6.3810 C   0  0  0  0  0  0                  
    6.9115    1.5300    7.4289 N   0  0  0  0  0  0                  
    7.6653    1.3185    5.0842 C   0  0  0  0  0  0                  
    7.2801    2.6694    4.6920 C   0  0  0  0  0  0                  
    6.9777    3.7402    4.3717 N   0  0  0  0  0  0                  
    8.8469   -2.5555    5.8263 N   0  0  0  0  0  0                  
    8.4925   -3.4869    6.7178 C   0  0  0  0  0  0                  
    7.5989   -3.3228    7.5461 O   0  0  0  0  0  0                  
    9.2363   -4.8312    6.6952 C   0  0  0  0  0  0                  
   10.3344   -4.9442    5.6374 C   0  0  0  0  0  0                  
   11.6772   -4.9663    6.0213 C   0  0  0  0  0  0                  
   12.6771   -5.0376    5.0516 C   0  0  0  0  0  0                  
   12.3591   -5.0911    3.6949 C   0  0  0  0  0  0                  
   11.0080   -5.0782    3.3147 C   0  0  0  0  0  0                  
   10.0044   -5.0030    4.2792 C   0  0  0  0  0  0                  
   13.4199   -5.1469    2.8159 O   0  0  0  0  0  0                  
   13.1536   -5.2088    1.4169 C   0  0  0  0  0  0                  
    9.6314    0.1549   -0.2014 H   0  0  0  0  0  0                  
    8.2185    1.1256    0.2043 H   0  0  0  0  0  0                  
    9.8227    1.6609    0.6985 H   0  0  0  0  0  0                  
    8.3978   -0.8595    1.7372 H   0  0  0  0  0  0                  
   10.0094   -0.3310    2.2272 H   0  0  0  0  0  0                  
    7.7075   -0.8716    7.6787 H   0  0  0  0  0  0                  
    6.8837    1.1252    8.3600 H   0  0  0  0  0  0                  
    6.5352    2.4625    7.2730 H   0  0  0  0  0  0                  
    9.5437   -2.7951    5.1436 H   0  0  0  0  0  0                  
    9.6491   -5.0022    7.6894 H   0  0  0  0  0  0                  
    8.5053   -5.6186    6.5297 H   0  0  0  0  0  0                  
   11.9510   -4.9268    7.0670 H   0  0  0  0  0  0                  
   13.7161   -5.0497    5.3465 H   0  0  0  0  0  0                  
   10.7220   -5.1226    2.2749 H   0  0  0  0  0  0                  
    8.9675   -4.9833    3.9708 H   0  0  0  0  0  0                  
   14.0965   -5.2054    0.8697 H   0  0  0  0  0  0                  
   12.6209   -6.1240    1.1518 H   0  0  0  0  0  0                  
   12.5738   -4.3500    1.0739 H   0  0  0  0  0  0                  
  1  2  1  0  0  0
  1 25  1  0  0  0
  1 26  1  0  0  0
  1 27  1  0  0  0
  2  3  1  0  0  0
  2 28  1  0  0  0
  2 29  1  0  0  0
  3  4  1  0  0  0
  4 10  1  0  0  0
  4  5  2  0  0  0
  5  6  1  0  0  0
  6  7  2  0  0  0
  6 13  1  0  0  0
  7  8  1  0  0  0
  7 30  1  0  0  0
  8  9  1  0  0  0
  8 10  2  0  0  0
  9 31  1  0  0  0
  9 32  1  0  0  0
 10 11  1  0  0  0
 11 12  3  0  0  0
 13 14  1  0  0  0
 13 33  1  0  0  0
 14 15  2  0  0  0
 14 16  1  0  0  0
 16 17  1  0  0  0
 16 34  1  0  0  0
 16 35  1  0  0  0
 17 22  1  0  0  0
 17 18  2  0  0  0
 18 19  1  0  0  0
 18 36  1  0  0  0
 19 20  2  0  0  0
 19 37  1  0  0  0
 20 21  1  0  0  0
 20 23  1  0  0  0
 21 22  2  0  0  0
 21 38  1  0  0  0
 22 39  1  0  0  0
 23 24  1  0  0  0
 24 40  1  0  0  0
 24 41  1  0  0  0
 24 42  1  0  0  0
M  END
> <i_m_stars>
0

> <r_user_dG.exp>
-9.174299

$$$$
18635-1
                    3D
 Structure written by MMmdl.
 44 45  0  0  1  0            999 V2000
    9.0868    0.9648    0.5291 C   0  0  0  0  0  0                  
    8.9553    0.1594    1.8239 C   0  0  0  0  0  0                  
    8.3933    1.0157    2.8153 O   0  0  0  0  0  0                  
    8.2258    0.5496    4.1083 C   0  0  0  0  0  0                  
    8.6208   -0.7259    4.3682 N   0  0  0  0  0  0                  
    8.4377   -1.2081    5.6053 C   0  0  0  0  0  0                  
    7.8958   -0.4651    6.6421 C   0  0  0  0  0  0                  
    7.4943    0.8321    6.3754 C   0  0  0  0  0  0                  
    6.9293    1.5157    7.4447 N   0  0  0  0  0  0                  
    7.6525    1.3694    5.0866 C   0  0  0  0  0  0                  
    7.2351    2.7195    4.7266 C   0  0  0  0  0  0                  
    6.9070    3.7891    4.4294 N   0  0  0  0  0  0                  
    8.8559   -2.5171    5.6746 N   0  0  0  0  0  0                  
    8.5219   -3.4875    6.5276 C   0  0  0  0  0  0                  
    7.7968   -3.3309    7.5090 O   0  0  0  0  0  0                  
    9.0148   -4.8867    6.1654 C   0  0  0  0  0  0                  
   10.5141   -4.9627    5.8763 C   0  0  0  0  0  0                  
   11.4866   -5.0354    6.8949 C   0  0  0  0  0  0                  
   11.1428   -5.0152    8.3784 C   0  0  0  0  0  0                  
   12.8388   -5.0937    6.5477 C   0  0  0  0  0  0                  
   13.2319   -5.0938    5.2113 C   0  0  0  0  0  0                  
   12.2745   -5.0209    4.2017 C   0  0  0  0  0  0                  
   12.7073   -5.0095    2.7486 C   0  0  0  0  0  0                  
   10.9229   -4.9516    4.5388 C   0  0  0  0  0  0                  
    9.5120    0.3569   -0.2688 H   0  0  0  0  0  0                  
    8.1119    1.3204    0.1947 H   0  0  0  0  0  0                  
    9.7283    1.8340    0.6715 H   0  0  0  0  0  0                  
    8.3145   -0.7108    1.6654 H   0  0  0  0  0  0                  
    9.9382   -0.2013    2.1357 H   0  0  0  0  0  0                  
    7.7738   -0.8847    7.6265 H   0  0  0  0  0  0                  
    6.9230    1.0956    8.3698 H   0  0  0  0  0  0                  
    6.5404    2.4464    7.3107 H   0  0  0  0  0  0                  
    9.4500   -2.7497    4.9004 H   0  0  0  0  0  0                  
    8.7658   -5.5796    6.9671 H   0  0  0  0  0  0                  
    8.4376   -5.2039    5.3055 H   0  0  0  0  0  0                  
   10.1569   -5.4124    8.6088 H   0  0  0  0  0  0                  
   11.8599   -5.6056    8.9512 H   0  0  0  0  0  0                  
   11.1928   -3.9903    8.7452 H   0  0  0  0  0  0                  
   13.5957   -5.1400    7.3185 H   0  0  0  0  0  0                  
   14.2821   -5.1444    4.9615 H   0  0  0  0  0  0                  
   13.5450   -4.3267    2.6027 H   0  0  0  0  0  0                  
   13.0205   -6.0073    2.4406 H   0  0  0  0  0  0                  
   11.8998   -4.6860    2.0901 H   0  0  0  0  0  0                  
   10.1849   -4.8682    3.7545 H   0  0  0  0  0  0                  
  1  2  1  0  0  0
  1 25  1  0  0  0
  1 26  1  0  0  0
  1 27  1  0  0  0
  2  3  1  0  0  0
  2 28  1  0  0  0
  2 29  1  0  0  0
  3  4  1  0  0  0
  4 10  1  0  0  0
  4  5  2  0  0  0
  5  6  1  0  0  0
  6  7  2  0  0  0
  6 13  1  0  0  0
  7  8  1  0  0  0
  7 30  1  0  0  0
  8  9  1  0  0  0
  8 10  2  0  0  0
  9 31  1  0  0  0
  9 32  1  0  0  0
 10 11  1  0  0  0
 11 12  3  0  0  0
 13 14  1  0  0  0
 13 33  1  0  0  0
 14 15  2  0  0  0
 14 16  1  0  0  0
 16 17  1  0  0  0
 16 34  1  0  0  0
 16 35  1  0  0  0
 17 24  1  0  0  0
 17 18  2  0  0  0
 18 19  1  0  0  0
 18 20  1  0  0  0
 19 36  1  0  0  0
 19 37  1  0  0  0
 19 38  1  0  0  0
 20 21  2  0  0  0
 20 39  1  0  0  0
 21 22  1  0  0  0
 21 40  1  0  0  0
 22 23  1  0  0  0
 22 24  2  0  0  0
 23 41  1  0  0  0
 23 42  1  0  0  0
 23 43  1  0  0  0
 24 44  1  0  0  0
M  END
> <i_m_stars>
0

> <r_user_dG.exp>
-7.286071

$$$$
17124-1
                    3D
 Structure written by MMmdl.
 46 47  0  0  1  0            999 V2000
    9.1699    0.9011    0.4318 C   0  0  0  0  0  0                  
    8.9947    0.0983    1.7228 C   0  0  0  0  0  0                  
    8.4386    0.9689    2.7042 O   0  0  0  0  0  0                  
    8.2494    0.5118    3.9972 C   0  0  0  0  0  0                  
    8.5993   -0.7766    4.2626 N   0  0  0  0  0  0                  
    8.4004   -1.2482    5.5028 C   0  0  0  0  0  0                  
    7.8952   -0.4726    6.5369 C   0  0  0  0  0  0                  
    7.5386    0.8361    6.2646 C   0  0  0  0  0  0                  
    7.0104    1.5500    7.3339 N   0  0  0  0  0  0                  
    7.7046    1.3565    4.9711 C   0  0  0  0  0  0                  
    7.3227    2.7159    4.6067 C   0  0  0  0  0  0                  
    7.0216    3.7931    4.3084 N   0  0  0  0  0  0                  
    8.7621   -2.5777    5.5842 N   0  0  0  0  0  0                  
    8.5208   -3.4850    6.5345 C   0  0  0  0  0  0                  
    7.8869   -3.2670    7.5648 O   0  0  0  0  0  0                  
    9.0100   -4.8990    6.2449 C   0  0  0  0  0  0                  
   10.5148   -4.9944    6.0083 C   0  0  0  0  0  0                  
   11.0606   -4.6986    4.7496 C   0  0  0  0  0  0                  
   10.1913   -4.2745    3.7601 O   0  0  0  0  0  0                  
   10.7127   -3.7839    2.5268 C   0  0  0  0  0  0                  
   12.4405   -4.8489    4.5631 C   0  0  0  0  0  0                  
   13.2641   -5.2502    5.6141 C   0  0  0  0  0  0                  
   15.1327   -5.4401    5.2881 Br  0  0  0  0  0  0                  
   12.7290   -5.5212    6.8783 C   0  0  0  0  0  0                  
   11.3452   -5.3932    7.0604 C   0  0  0  0  0  0                  
   13.6026   -5.8868    7.8843 O   0  0  0  0  0  0                  
   13.1002   -6.5696    9.0303 C   0  0  0  0  0  0                  
    9.5941    0.2837   -0.3593 H   0  0  0  0  0  0                  
    8.2105    1.2814    0.0803 H   0  0  0  0  0  0                  
    9.8298    1.7542    0.5875 H   0  0  0  0  0  0                  
    8.3343   -0.7550    1.5533 H   0  0  0  0  0  0                  
    9.9626   -0.2872    2.0515 H   0  0  0  0  0  0                  
    7.7623   -0.8724    7.5280 H   0  0  0  0  0  0                  
    6.9660    1.1247    8.2548 H   0  0  0  0  0  0                  
    6.6240    2.4801    7.1917 H   0  0  0  0  0  0                  
    9.2537   -2.8875    4.7606 H   0  0  0  0  0  0                  
    8.7150   -5.5714    7.0461 H   0  0  0  0  0  0                  
    8.4798   -5.2252    5.3558 H   0  0  0  0  0  0                  
    9.8882   -3.4455    1.8990 H   0  0  0  0  0  0                  
   11.3761   -2.9310    2.6783 H   0  0  0  0  0  0                  
   11.2442   -4.5607    1.9751 H   0  0  0  0  0  0                  
   12.8972   -4.6562    3.6053 H   0  0  0  0  0  0                  
   10.9045   -5.6111    8.0208 H   0  0  0  0  0  0                  
   13.9354   -6.8473    9.6729 H   0  0  0  0  0  0                  
   12.4289   -5.9543    9.6274 H   0  0  0  0  0  0                  
   12.5857   -7.4892    8.7546 H   0  0  0  0  0  0                  
  1  2  1  0  0  0
  1 28  1  0  0  0
  1 29  1  0  0  0
  1 30  1  0  0  0
  2  3  1  0  0  0
  2 31  1  0  0  0
  2 32  1  0  0  0
  3  4  1  0  0  0
  4 10  1  0  0  0
  4  5  2  0  0  0
  5  6  1  0  0  0
  6  7  2  0  0  0
  6 13  1  0  0  0
  7  8  1  0  0  0
  7 33  1  0  0  0
  8  9  1  0  0  0
  8 10  2  0  0  0
  9 34  1  0  0  0
  9 35  1  0  0  0
 10 11  1  0  0  0
 11 12  3  0  0  0
 13 14  1  0  0  0
 13 36  1  0  0  0
 14 15  2  0  0  0
 14 16  1  0  0  0
 16 17  1  0  0  0
 16 37  1  0  0  0
 16 38  1  0  0  0
 17 25  1  0  0  0
 17 18  2  0  0  0
 18 19  1  0  0  0
 18 21  1  0  0  0
 19 20  1  0  0  0
 20 39  1  0  0  0
 20 40  1  0  0  0
 20 41  1  0  0  0
 21 22  2  0  0  0
 21 42  1  0  0  0
 22 23  1  0  0  0
 22 24  1  0  0  0
 24 25  2  0  0  0
 24 26  1  0  0  0
 25 43  1  0  0  0
 26 27  1  0  0  0
 27 44  1  0  0  0
 27 45  1  0  0  0
 27 46  1  0  0  0
M  END
> <i_m_stars>
0

> <r_user_dG.exp>
-9.675922

$$$$
18625-1
                    3D
 Structure written by MMmdl.
 38 39  0  0  1  0            999 V2000
    9.0962    1.0024    0.4708 C   0  0  0  0  0  0                  
    8.9365    0.1795    1.7513 C   0  0  0  0  0  0                  
    8.3936    1.0354    2.7539 O   0  0  0  0  0  0                  
    8.2163    0.5562    4.0408 C   0  0  0  0  0  0                  
    8.5760   -0.7330    4.2820 N   0  0  0  0  0  0                  
    8.3866   -1.2297    5.5118 C   0  0  0  0  0  0                  
    7.8772   -0.4819    6.5636 C   0  0  0  0  0  0                  
    7.5088    0.8298    6.3166 C   0  0  0  0  0  0                  
    6.9727    1.5190    7.3982 N   0  0  0  0  0  0                  
    7.6681    1.3769    5.0323 C   0  0  0  0  0  0                  
    7.2727    2.7377    4.6898 C   0  0  0  0  0  0                  
    6.9609    3.8157    4.4068 N   0  0  0  0  0  0                  
    8.7601   -2.5562    5.5500 N   0  0  0  0  0  0                  
    8.5424   -3.4944    6.4758 C   0  0  0  0  0  0                  
    7.9435   -3.3079    7.5330 O   0  0  0  0  0  0                  
    9.0179   -4.8987    6.1203 C   0  0  0  0  0  0                  
   10.5353   -5.0064    5.9806 C   0  0  0  0  0  0                  
   11.3789   -5.1023    7.1013 C   0  0  0  0  0  0                  
   10.7479   -5.1227    8.7119 Cl  0  0  0  0  0  0                  
   12.7604   -5.1800    6.9285 C   0  0  0  0  0  0                  
   13.3128   -5.1787    5.6480 C   0  0  0  0  0  0                  
   12.4802   -5.0886    4.5342 C   0  0  0  0  0  0                  
   11.0989   -4.9984    4.7004 C   0  0  0  0  0  0                  
    9.5065    0.3956   -0.3358 H   0  0  0  0  0  0                  
    8.1335    1.3922    0.1393 H   0  0  0  0  0  0                  
    9.7625    1.8495    0.6301 H   0  0  0  0  0  0                  
    8.2728   -0.6702    1.5764 H   0  0  0  0  0  0                  
    9.9078   -0.2134    2.0609 H   0  0  0  0  0  0                  
    7.7489   -0.9051    7.5454 H   0  0  0  0  0  0                  
    6.5886    2.4525    7.2713 H   0  0  0  0  0  0                  
    6.9535    1.0885    8.3180 H   0  0  0  0  0  0                  
    9.2259   -2.8180    4.6976 H   0  0  0  0  0  0                  
    8.6673   -5.6070    6.8680 H   0  0  0  0  0  0                  
    8.5265   -5.1737    5.1915 H   0  0  0  0  0  0                  
   13.4020   -5.2447    7.7954 H   0  0  0  0  0  0                  
   14.3846   -5.2425    5.5192 H   0  0  0  0  0  0                  
   12.9047   -5.0749    3.5395 H   0  0  0  0  0  0                  
   10.4687   -4.9034    3.8270 H   0  0  0  0  0  0                  
  1  2  1  0  0  0
  1 24  1  0  0  0
  1 25  1  0  0  0
  1 26  1  0  0  0
  2  3  1  0  0  0
  2 27  1  0  0  0
  2 28  1  0  0  0
  3  4  1  0  0  0
  4 10  1  0  0  0
  4  5  2  0  0  0
  5  6  1  0  0  0
  6  7  2  0  0  0
  6 13  1  0  0  0
  7  8  1  0  0  0
  7 29  1  0  0  0
  8  9  1  0  0  0
  8 10  2  0  0  0
  9 30  1  0  0  0
  9 31  1  0  0  0
 10 11  1  0  0  0
 11 12  3  0  0  0
 13 14  1  0  0  0
 13 32  1  0  0  0
 14 15  2  0  0  0
 14 16  1  0  0  0
 16 17  1  0  0  0
 16 33  1  0  0  0
 16 34  1  0  0  0
 17 23  1  0  0  0
 17 18  2  0  0  0
 18 19  1  0  0  0
 18 20  1  0  0  0
 20 21  2  0  0  0
 20 35  1  0  0  0
 21 22  1  0  0  0
 21 36  1  0  0  0
 22 23  2  0  0  0
 22 37  1  0  0  0
 23 38  1  0  0  0
M  END
> <i_m_stars>
0

> <r_user_dG.exp>
-8.105004

$$$$
18659-1
                    3D
 Structure written by MMmdl.
 50 51  0  0  1  0            999 V2000
    9.2263   -0.6119   -1.2531 C   0  0  0  0  0  0                  
    9.9402    0.3836   -0.5273 O   0  0  0  0  0  0                  
    9.1670    1.0485    0.4710 C   0  0  0  0  0  0                  
    8.9896    0.2074    1.7484 C   0  0  0  0  0  0                  
    8.3964    1.0352    2.7496 O   0  0  0  0  0  0                  
    8.2201    0.5518    4.0340 C   0  0  0  0  0  0                  
    8.5808   -0.7381    4.2741 N   0  0  0  0  0  0                  
    8.3900   -1.2319    5.5086 C   0  0  0  0  0  0                  
    7.8831   -0.4752    6.5569 C   0  0  0  0  0  0                  
    7.5139    0.8344    6.3074 C   0  0  0  0  0  0                  
    6.9797    1.5272    7.3874 N   0  0  0  0  0  0                  
    7.6713    1.3758    5.0221 C   0  0  0  0  0  0                  
    7.2761    2.7359    4.6757 C   0  0  0  0  0  0                  
    6.9650    3.8131    4.3887 N   0  0  0  0  0  0                  
    8.7547   -2.5630    5.5733 N   0  0  0  0  0  0                  
    8.5102   -3.4837    6.5113 C   0  0  0  0  0  0                  
    7.8748   -3.2800    7.5442 O   0  0  0  0  0  0                  
    9.0013   -4.8940    6.2051 C   0  0  0  0  0  0                  
   10.5090   -4.9803    5.9867 C   0  0  0  0  0  0                  
   11.0676   -4.6689    4.7368 C   0  0  0  0  0  0                  
   10.2052   -4.2488    3.7390 O   0  0  0  0  0  0                  
   10.7379   -3.7423    2.5169 C   0  0  0  0  0  0                  
   12.4534   -4.7942    4.5691 C   0  0  0  0  0  0                  
   13.2659   -5.1775    5.6367 C   0  0  0  0  0  0                  
   12.7184   -5.4732    6.8825 C   0  0  0  0  0  0                  
   11.3308   -5.3765    7.0478 C   0  0  0  0  0  0                  
   13.6004   -5.8312    7.8803 O   0  0  0  0  0  0                  
   13.1084   -6.5423    9.0139 C   0  0  0  0  0  0                  
    9.8798   -1.0481   -2.0086 H   0  0  0  0  0  0                  
    8.8832   -1.4226   -0.6089 H   0  0  0  0  0  0                  
    8.3625   -0.1887   -1.7689 H   0  0  0  0  0  0                  
    9.7042    1.9618    0.7273 H   0  0  0  0  0  0                  
    8.2005    1.3716    0.0788 H   0  0  0  0  0  0                  
    8.3586   -0.6618    1.5564 H   0  0  0  0  0  0                  
    9.9641   -0.1553    2.0814 H   0  0  0  0  0  0                  
    7.7560   -0.8905    7.5421 H   0  0  0  0  0  0                  
    6.9550    1.0967    8.3070 H   0  0  0  0  0  0                  
    6.5926    2.4592    7.2584 H   0  0  0  0  0  0                  
    9.2557   -2.8630    4.7511 H   0  0  0  0  0  0                  
    8.6973   -5.5799    6.9916 H   0  0  0  0  0  0                  
    8.4835   -5.2072    5.3035 H   0  0  0  0  0  0                  
   11.2936   -4.5058    1.9707 H   0  0  0  0  0  0                  
   11.3822   -2.8779    2.6841 H   0  0  0  0  0  0                  
    9.9181   -3.4160    1.8766 H   0  0  0  0  0  0                  
   12.9195   -4.5872    3.6181 H   0  0  0  0  0  0                  
   14.3352   -5.2545    5.5028 H   0  0  0  0  0  0                  
   10.8839   -5.6098    8.0015 H   0  0  0  0  0  0                  
   13.9456   -6.8064    9.6595 H   0  0  0  0  0  0                  
   12.4158   -5.9534    9.6135 H   0  0  0  0  0  0                  
   12.6198   -7.4713    8.7220 H   0  0  0  0  0  0                  
  1  2  1  0  0  0
  1 29  1  0  0  0
  1 30  1  0  0  0
  1 31  1  0  0  0
  2  3  1  0  0  0
  3  4  1  0  0  0
  3 32  1  0  0  0
  3 33  1  0  0  0
  4  5  1  0  0  0
  4 34  1  0  0  0
  4 35  1  0  0  0
  5  6  1  0  0  0
  6 12  1  0  0  0
  6  7  2  0  0  0
  7  8  1  0  0  0
  8  9  2  0  0  0
  8 15  1  0  0  0
  9 10  1  0  0  0
  9 36  1  0  0  0
 10 11  1  0  0  0
 10 12  2  0  0  0
 11 37  1  0  0  0
 11 38  1  0  0  0
 12 13  1  0  0  0
 13 14  3  0  0  0
 15 16  1  0  0  0
 15 39  1  0  0  0
 16 17  2  0  0  0
 16 18  1  0  0  0
 18 19  1  0  0  0
 18 40  1  0  0  0
 18 41  1  0  0  0
 19 26  1  0  0  0
 19 20  2  0  0  0
 20 21  1  0  0  0
 20 23  1  0  0  0
 21 22  1  0  0  0
 22 42  1  0  0  0
 22 43  1  0  0  0
 22 44  1  0  0  0
 23 24  2  0  0  0
 23 45  1  0  0  0
 24 25  1  0  0  0
 24 46  1  0  0  0
 25 26  2  0  0  0
 25 27  1  0  0  0
 26 47  1  0  0  0
 27 28  1  0  0  0
 28 48  1  0  0  0
 28 49  1  0  0  0
 28 50  1  0  0  0
M  END
> <i_m_stars>
0

> <r_user_dG.exp>
-9.465222

$$$$
18637-1
                    3D
 Structure written by MMmdl.
 53 54  0  0  1  0            999 V2000
    9.1508    0.9006    0.4286 C   0  0  0  0  0  0                  
    8.9427    0.0901    1.7102 C   0  0  0  0  0  0                  
    8.4346    0.9740    2.7053 O   0  0  0  0  0  0                  
    8.2445    0.5160    3.9976 C   0  0  0  0  0  0                  
    8.5876   -0.7745    4.2611 N   0  0  0  0  0  0                  
    8.3913   -1.2455    5.5021 C   0  0  0  0  0  0                  
    7.8914   -0.4682    6.5375 C   0  0  0  0  0  0                  
    7.5388    0.8416    6.2663 C   0  0  0  0  0  0                  
    7.0135    1.5563    7.3363 N   0  0  0  0  0  0                  
    7.7052    1.3622    4.9729 C   0  0  0  0  0  0                  
    7.3272    2.7227    4.6091 C   0  0  0  0  0  0                  
    7.0294    3.8006    4.3107 N   0  0  0  0  0  0                  
    8.7501   -2.5756    5.5847 N   0  0  0  0  0  0                  
    8.5093   -3.4814    6.5367 C   0  0  0  0  0  0                  
    7.8732   -3.2613    7.5653 O   0  0  0  0  0  0                  
    9.0008   -4.8962    6.2502 C   0  0  0  0  0  0                  
   10.5003   -4.9865    5.9769 C   0  0  0  0  0  0                  
   11.0144   -4.6924    4.7064 C   0  0  0  0  0  0                  
   10.1191   -4.2786    3.7355 O   0  0  0  0  0  0                  
   10.6109   -3.7601    2.5008 C   0  0  0  0  0  0                  
   12.3903   -4.8233    4.4889 C   0  0  0  0  0  0                  
   13.2571   -5.2010    5.5245 C   0  0  0  0  0  0                  
   12.7394   -5.4755    6.8001 C   0  0  0  0  0  0                  
   11.3580   -5.3703    7.0105 C   0  0  0  0  0  0                  
   13.6343   -5.8214    7.8001 O   0  0  0  0  0  0                  
   13.1580   -6.5255    8.9459 C   0  0  0  0  0  0                  
   14.6588   -5.3128    5.3729 N   0  0  0  0  0  0                  
   15.4569   -5.1563    4.3042 C   0  0  0  0  0  0                  
   15.0698   -4.9176    3.1647 O   0  0  0  0  0  0                  
   16.9506   -5.2641    4.5562 C   0  0  0  0  0  0                  
    9.5105    0.2668   -0.3816 H   0  0  0  0  0  0                  
    8.2163    1.3595    0.1042 H   0  0  0  0  0  0                  
    9.8776    1.6978    0.5838 H   0  0  0  0  0  0                  
    8.2376   -0.7255    1.5351 H   0  0  0  0  0  0                  
    9.8922   -0.3490    2.0252 H   0  0  0  0  0  0                  
    7.7598   -0.8674    7.5290 H   0  0  0  0  0  0                  
    6.6277    2.4868    7.1943 H   0  0  0  0  0  0                  
    6.9670    1.1298    8.2564 H   0  0  0  0  0  0                  
    9.2415   -2.8896    4.7622 H   0  0  0  0  0  0                  
    8.7291   -5.5629    7.0645 H   0  0  0  0  0  0                  
    8.4518   -5.2316    5.3766 H   0  0  0  0  0  0                  
   11.2778   -2.9096    2.6545 H   0  0  0  0  0  0                  
   11.1310   -4.5244    1.9211 H   0  0  0  0  0  0                  
    9.7719   -3.4101    1.8992 H   0  0  0  0  0  0                  
   12.7862   -4.6161    3.5103 H   0  0  0  0  0  0                  
   10.9396   -5.5873    7.9813 H   0  0  0  0  0  0                  
   14.0056   -6.8002    9.5734 H   0  0  0  0  0  0                  
   12.4877   -5.9257    9.5598 H   0  0  0  0  0  0                  
   12.6498   -7.4481    8.6674 H   0  0  0  0  0  0                  
   15.1134   -5.5365    6.2452 H   0  0  0  0  0  0                  
   17.1888   -5.4382    5.6050 H   0  0  0  0  0  0                  
   17.3621   -6.0818    3.9668 H   0  0  0  0  0  0                  
   17.4353   -4.3391    4.2434 H   0  0  0  0  0  0                  
  1  2  1  0  0  0
  1 31  1  0  0  0
  1 32  1  0  0  0
  1 33  1  0  0  0
  2  3  1  0  0  0
  2 34  1  0  0  0
  2 35  1  0  0  0
  3  4  1  0  0  0
  4 10  1  0  0  0
  4  5  2  0  0  0
  5  6  1  0  0  0
  6  7  2  0  0  0
  6 13  1  0  0  0
  7  8  1  0  0  0
  7 36  1  0  0  0
  8  9  1  0  0  0
  8 10  2  0  0  0
  9 37  1  0  0  0
  9 38  1  0  0  0
 10 11  1  0  0  0
 11 12  3  0  0  0
 13 14  1  0  0  0
 13 39  1  0  0  0
 14 15  2  0  0  0
 14 16  1  0  0  0
 16 17  1  0  0  0
 16 40  1  0  0  0
 16 41  1  0  0  0
 17 24  1  0  0  0
 17 18  2  0  0  0
 18 19  1  0  0  0
 18 21  1  0  0  0
 19 20  1  0  0  0
 20 42  1  0  0  0
 20 43  1  0  0  0
 20 44  1  0  0  0
 21 22  2  0  0  0
 21 45  1  0  0  0
 22 23  1  0  0  0
 22 27  1  0  0  0
 23 24  2  0  0  0
 23 25  1  0  0  0
 24 46  1  0  0  0
 25 26  1  0  0  0
 26 47  1  0  0  0
 26 48  1  0  0  0
 26 49  1  0  0  0
 27 28  1  0  0  0
 27 50  1  0  0  0
 28 29  2  0  0  0
 28 30  1  0  0  0
 30 51  1  0  0  0
 30 52  1  0  0  0
 30 53  1  0  0  0
M  END
> <i_m_stars>
0

> <r_user_dG.exp>
-10.141692

$$$$
18638-1
                    3D
 Structure written by MMmdl.
 52 53  0  0  1  0            999 V2000
    9.1722    0.8974    0.4341 C   0  0  0  0  0  0                  
    8.9969    0.0945    1.7252 C   0  0  0  0  0  0                  
    8.4405    0.9648    2.7065 O   0  0  0  0  0  0                  
    8.2515    0.5079    3.9996 C   0  0  0  0  0  0                  
    8.6023   -0.7804    4.2653 N   0  0  0  0  0  0                  
    8.4042   -1.2520    5.5055 C   0  0  0  0  0  0                  
    7.8979   -0.4763    6.5394 C   0  0  0  0  0  0                  
    7.5400    0.8321    6.2667 C   0  0  0  0  0  0                  
    7.0107    1.5461    7.3356 N   0  0  0  0  0  0                  
    7.7061    1.3523    4.9731 C   0  0  0  0  0  0                  
    7.3238    2.7117    4.6088 C   0  0  0  0  0  0                  
    7.0227    3.7889    4.3105 N   0  0  0  0  0  0                  
    8.7679   -2.5811    5.5874 N   0  0  0  0  0  0                  
    8.5223   -3.4890    6.5362 C   0  0  0  0  0  0                  
    7.8838   -3.2713    7.5635 O   0  0  0  0  0  0                  
    9.0116   -4.9028    6.2494 C   0  0  0  0  0  0                  
   10.5199   -5.0003    6.0442 C   0  0  0  0  0  0                  
   11.0900   -4.7042    4.7968 C   0  0  0  0  0  0                  
   10.2390   -4.2790    3.7915 O   0  0  0  0  0  0                  
   10.7769   -3.8331    2.5482 C   0  0  0  0  0  0                  
   12.4724   -4.8583    4.6354 C   0  0  0  0  0  0                  
   13.2749   -5.2665    5.7060 C   0  0  0  0  0  0                  
   15.0407   -5.4746    5.4392 S   0  0  0  0  0  0                  
   15.3664   -5.0294    4.0743 O   0  0  0  0  0  0                  
   15.7669   -4.8904    6.5783 O   0  0  0  0  0  0                  
   15.2783   -7.2962    5.4942 C   0  0  0  0  0  0                  
   12.7130   -5.5464    6.9588 C   0  0  0  0  0  0                  
   11.3267   -5.4083    7.1104 C   0  0  0  0  0  0                  
   13.5521   -5.9427    7.9824 O   0  0  0  0  0  0                  
   13.0136   -6.6082    9.1219 C   0  0  0  0  0  0                  
    9.5960    0.2798   -0.3570 H   0  0  0  0  0  0                  
    8.2128    1.2781    0.0829 H   0  0  0  0  0  0                  
    9.8326    1.7502    0.5899 H   0  0  0  0  0  0                  
    8.3367   -0.7590    1.5554 H   0  0  0  0  0  0                  
    9.9648   -0.2910    2.0539 H   0  0  0  0  0  0                  
    7.7655   -0.8757    7.5307 H   0  0  0  0  0  0                  
    6.9672    1.1218    8.2571 H   0  0  0  0  0  0                  
    6.6245    2.4763    7.1930 H   0  0  0  0  0  0                  
    9.2652   -2.8885    4.7660 H   0  0  0  0  0  0                  
    8.7000   -5.5781    7.0414 H   0  0  0  0  0  0                  
    8.4987   -5.2252    5.3486 H   0  0  0  0  0  0                  
    9.9616   -3.5062    1.9024 H   0  0  0  0  0  0                  
   11.4473   -2.9825    2.6783 H   0  0  0  0  0  0                  
   11.3050   -4.6322    2.0256 H   0  0  0  0  0  0                  
   12.9353   -4.6631    3.6810 H   0  0  0  0  0  0                  
   14.6761   -7.7620    4.7167 H   0  0  0  0  0  0                  
   16.3302   -7.5243    5.3368 H   0  0  0  0  0  0                  
   14.9636   -7.6638    6.4698 H   0  0  0  0  0  0                  
   10.8622   -5.6309    8.0579 H   0  0  0  0  0  0                  
   12.4976   -7.5243    8.8400 H   0  0  0  0  0  0                  
   12.3357   -5.9816    9.6991 H   0  0  0  0  0  0                  
   13.8301   -6.8904    9.7862 H   0  0  0  0  0  0                  
  1  2  1  0  0  0
  1 31  1  0  0  0
  1 32  1  0  0  0
  1 33  1  0  0  0
  2  3  1  0  0  0
  2 34  1  0  0  0
  2 35  1  0  0  0
  3  4  1  0  0  0
  4 10  1  0  0  0
  4  5  2  0  0  0
  5  6  1  0  0  0
  6  7  2  0  0  0
  6 13  1  0  0  0
  7  8  1  0  0  0
  7 36  1  0  0  0
  8  9  1  0  0  0
  8 10  2  0  0  0
  9 37  1  0  0  0
  9 38  1  0  0  0
 10 11  1  0  0  0
 11 12  3  0  0  0
 13 14  1  0  0  0
 13 39  1  0  0  0
 14 15  2  0  0  0
 14 16  1  0  0  0
 16 17  1  0  0  0
 16 40  1  0  0  0
 16 41  1  0  0  0
 17 28  1  0  0  0
 17 18  2  0  0  0
 18 19  1  0  0  0
 18 21  1  0  0  0
 19 20  1  0  0  0
 20 42  1  0  0  0
 20 43  1  0  0  0
 20 44  1  0  0  0
 21 22  2  0  0  0
 21 45  1  0  0  0
 22 23  1  0  0  0
 22 27  1  0  0  0
 23 24  2  0  0  0
 23 25  2  0  0  0
 23 26  1  0  0  0
 26 46  1  0  0  0
 26 47  1  0  0  0
 26 48  1  0  0  0
 27 28  2  0  0  0
 27 29  1  0  0  0
 28 49  1  0  0  0
 29 30  1  0  0  0
 30 50  1  0  0  0
 30 51  1  0  0  0
 30 52  1  0  0  0
M  END
> <i_m_stars>
0

> <r_user_dG.exp>
-10.093111

$$$$
18652-1
                    3D
 Structure written by MMmdl.
 55 56  0  0  1  0            999 V2000
   10.1872   -0.5698    1.7507 C   0  0  0  0  0  0                  
    8.7444   -0.0609    1.6364 C   0  0  0  0  0  0                  
    7.7337   -1.1884    1.3824 C   0  0  0  0  0  0                  
    8.3695    0.8309    2.6973 O   0  0  0  0  0  0                  
    8.2336    0.4263    4.0165 C   0  0  0  0  0  0                  
    8.5932   -0.8447    4.3205 N   0  0  0  0  0  0                  
    8.4242   -1.2854    5.5693 C   0  0  0  0  0  0                  
    7.9274   -0.4918    6.5923 C   0  0  0  0  0  0                  
    7.5634    0.8099    6.2894 C   0  0  0  0  0  0                  
    7.0406    1.5484    7.3446 N   0  0  0  0  0  0                  
    7.7141    1.2997    4.9799 C   0  0  0  0  0  0                  
    7.3368    2.6537    4.5907 C   0  0  0  0  0  0                  
    7.0405    3.7276    4.2742 N   0  0  0  0  0  0                  
    8.8069   -2.6057    5.6541 N   0  0  0  0  0  0                  
    8.5320   -3.5213    6.5821 C   0  0  0  0  0  0                  
    7.8549   -3.3083    7.5845 O   0  0  0  0  0  0                  
    9.0306   -4.9323    6.2949 C   0  0  0  0  0  0                  
   10.5418   -5.0281    6.1050 C   0  0  0  0  0  0                  
   11.1255   -4.7499    4.8596 C   0  0  0  0  0  0                  
   10.2862   -4.3431    3.8376 O   0  0  0  0  0  0                  
   10.8134   -4.1449    2.5276 C   0  0  0  0  0  0                  
   12.5116   -4.8949    4.7185 C   0  0  0  0  0  0                  
   13.3030   -5.2855    5.8034 C   0  0  0  0  0  0                  
   15.0746   -5.4764    5.5646 S   0  0  0  0  0  0                  
   15.7763   -4.8550    6.6993 O   0  0  0  0  0  0                  
   15.4129   -5.0586    4.1941 O   0  0  0  0  0  0                  
   15.3373   -7.2928    5.6645 C   0  0  0  0  0  0                  
   12.7261   -5.5587    7.0504 C   0  0  0  0  0  0                  
   11.3378   -5.4249    7.1831 C   0  0  0  0  0  0                  
   13.5526   -5.9429    8.0887 O   0  0  0  0  0  0                  
   13.0019   -6.6288    9.2100 C   0  0  0  0  0  0                  
   10.8607    0.2657    1.9114 H   0  0  0  0  0  0                  
   10.3245   -1.2626    2.5774 H   0  0  0  0  0  0                  
   10.4913   -1.0906    0.8436 H   0  0  0  0  0  0                  
    8.7188    0.5715    0.7471 H   0  0  0  0  0  0                  
    6.7500   -0.7696    1.1853 H   0  0  0  0  0  0                  
    8.0173   -1.7744    0.5092 H   0  0  0  0  0  0                  
    7.6430   -1.8794    2.2184 H   0  0  0  0  0  0                  
    7.8112   -0.8735    7.5928 H   0  0  0  0  0  0                  
    6.9885    1.1366    8.2711 H   0  0  0  0  0  0                  
    6.6457    2.4711    7.1817 H   0  0  0  0  0  0                  
    9.3234   -2.9000    4.8401 H   0  0  0  0  0  0                  
    8.7122   -5.6118    7.0797 H   0  0  0  0  0  0                  
    8.5274   -5.2509    5.3874 H   0  0  0  0  0  0                  
   11.2365   -5.0654    2.1221 H   0  0  0  0  0  0                  
   10.0098   -3.8327    1.8601 H   0  0  0  0  0  0                  
   11.5734   -3.3624    2.5081 H   0  0  0  0  0  0                  
   12.9877   -4.7027    3.7702 H   0  0  0  0  0  0                  
   14.7498   -7.7850    4.8922 H   0  0  0  0  0  0                  
   16.3939   -7.5094    5.5227 H   0  0  0  0  0  0                  
   15.0182   -7.6427    6.6450 H   0  0  0  0  0  0                  
   10.8626   -5.6431    8.1259 H   0  0  0  0  0  0                  
   12.3083   -6.0157    9.7835 H   0  0  0  0  0  0                  
   12.4999   -7.5459    8.9058 H   0  0  0  0  0  0                  
   13.8096   -6.9119    9.8845 H   0  0  0  0  0  0                  
  1  2  1  0  0  0
  1 32  1  0  0  0
  1 33  1  0  0  0
  1 34  1  0  0  0
  2  3  1  0  0  0
  2  4  1  0  0  0
  2 35  1  0  0  0
  3 36  1  0  0  0
  3 37  1  0  0  0
  3 38  1  0  0  0
  4  5  1  0  0  0
  5 11  1  0  0  0
  5  6  2  0  0  0
  6  7  1  0  0  0
  7  8  2  0  0  0
  7 14  1  0  0  0
  8  9  1  0  0  0
  8 39  1  0  0  0
  9 10  1  0  0  0
  9 11  2  0  0  0
 10 40  1  0  0  0
 10 41  1  0  0  0
 11 12  1  0  0  0
 12 13  3  0  0  0
 14 15  1  0  0  0
 14 42  1  0  0  0
 15 16  2  0  0  0
 15 17  1  0  0  0
 17 18  1  0  0  0
 17 43  1  0  0  0
 17 44  1  0  0  0
 18 29  1  0  0  0
 18 19  2  0  0  0
 19 20  1  0  0  0
 19 22  1  0  0  0
 20 21  1  0  0  0
 21 45  1  0  0  0
 21 46  1  0  0  0
 21 47  1  0  0  0
 22 23  2  0  0  0
 22 48  1  0  0  0
 23 24  1  0  0  0
 23 28  1  0  0  0
 24 25  2  0  0  0
 24 26  2  0  0  0
 24 27  1  0  0  0
 27 49  1  0  0  0
 27 50  1  0  0  0
 27 51  1  0  0  0
 28 29  2  0  0  0
 28 30  1  0  0  0
 29 52  1  0  0  0
 30 31  1  0  0  0
 31 53  1  0  0  0
 31 54  1  0  0  0
 31 55  1  0  0  0
M  END
> <i_m_stars>
0

> <r_user_dG.exp>
-10.682977

$$$$
18627-1
                    3D
 Structure written by MMmdl.
 38 39  0  0  1  0            999 V2000
    9.1891    0.7928    0.5562 C   0  0  0  0  0  0                  
    9.0341    0.0188    1.8675 C   0  0  0  0  0  0                  
    8.4515    0.8985    2.8256 O   0  0  0  0  0  0                  
    8.2504    0.4617    4.1236 C   0  0  0  0  0  0                  
    8.6242   -0.8137    4.4200 N   0  0  0  0  0  0                  
    8.4069   -1.2665    5.6631 C   0  0  0  0  0  0                  
    7.8557   -0.4892    6.6700 C   0  0  0  0  0  0                  
    7.4830    0.8077    6.3691 C   0  0  0  0  0  0                  
    6.9231    1.5254    7.4184 N   0  0  0  0  0  0                  
    7.6725    1.3133    5.0726 C   0  0  0  0  0  0                  
    7.2881    2.6653    4.6826 C   0  0  0  0  0  0                  
    6.9864    3.7368    4.3643 N   0  0  0  0  0  0                  
    8.8478   -2.5655    5.8056 N   0  0  0  0  0  0                  
    8.4966   -3.4940    6.7020 C   0  0  0  0  0  0                  
    7.6108   -3.3244    7.5370 O   0  0  0  0  0  0                  
    9.2281   -4.8436    6.6791 C   0  0  0  0  0  0                  
   10.3873   -4.9449    5.6881 C   0  0  0  0  0  0                  
   10.1445   -4.9933    4.3092 C   0  0  0  0  0  0                  
   11.2108   -5.0682    3.4116 C   0  0  0  0  0  0                  
   12.5209   -5.0977    3.8876 C   0  0  0  0  0  0                  
   13.8419   -5.1777    2.7838 Cl  0  0  0  0  0  0                  
   12.7666   -5.0556    5.2589 C   0  0  0  0  0  0                  
   11.7033   -4.9794    6.1589 C   0  0  0  0  0  0                  
    9.6315    0.1663   -0.2177 H   0  0  0  0  0  0                  
    8.2198    1.1363    0.1940 H   0  0  0  0  0  0                  
    9.8247    1.6676    0.6895 H   0  0  0  0  0  0                  
    8.3981   -0.8563    1.7175 H   0  0  0  0  0  0                  
   10.0110   -0.3318    2.2085 H   0  0  0  0  0  0                  
    7.7150   -0.8785    7.6646 H   0  0  0  0  0  0                  
    6.8933    1.1199    8.3492 H   0  0  0  0  0  0                  
    6.5466    2.4578    7.2631 H   0  0  0  0  0  0                  
    9.5390   -2.8016    5.1172 H   0  0  0  0  0  0                  
    9.5831   -5.0434    7.6897 H   0  0  0  0  0  0                  
    8.4973   -5.6163    6.4573 H   0  0  0  0  0  0                  
    9.1305   -4.9695    3.9328 H   0  0  0  0  0  0                  
   11.0300   -5.1032    2.3465 H   0  0  0  0  0  0                  
   13.7847   -5.0814    5.6188 H   0  0  0  0  0  0                  
   11.9075   -4.9515    7.2205 H   0  0  0  0  0  0                  
  1  2  1  0  0  0
  1 24  1  0  0  0
  1 25  1  0  0  0
  1 26  1  0  0  0
  2  3  1  0  0  0
  2 27  1  0  0  0
  2 28  1  0  0  0
  3  4  1  0  0  0
  4 10  1  0  0  0
  4  5  2  0  0  0
  5  6  1  0  0  0
  6  7  2  0  0  0
  6 13  1  0  0  0
  7  8  1  0  0  0
  7 29  1  0  0  0
  8  9  1  0  0  0
  8 10  2  0  0  0
  9 30  1  0  0  0
  9 31  1  0  0  0
 10 11  1  0  0  0
 11 12  3  0  0  0
 13 14  1  0  0  0
 13 32  1  0  0  0
 14 15  2  0  0  0
 14 16  1  0  0  0
 16 17  1  0  0  0
 16 33  1  0  0  0
 16 34  1  0  0  0
 17 23  1  0  0  0
 17 18  2  0  0  0
 18 19  1  0  0  0
 18 35  1  0  0  0
 19 20  2  0  0  0
 19 36  1  0  0  0
 20 21  1  0  0  0
 20 22  1  0  0  0
 22 23  2  0  0  0
 22 37  1  0  0  0
 23 38  1  0  0  0
M  END
> <i_m_stars>
0

> <r_user_dG.exp>
-8.483096

$$$$
18658-1
                    3D
 Structure written by MMmdl.
 47 48  0  0  1  0            999 V2000
    8.3356   -0.3102   -0.8125 O   0  0  0  0  0  0                  
    8.2855    0.6280    0.2513 C   0  0  0  0  0  0                  
    8.4438   -0.0637    1.6141 C   0  0  0  0  0  0                  
    8.2665    0.9087    2.6468 O   0  0  0  0  0  0                  
    8.1878    0.4917    3.9642 C   0  0  0  0  0  0                  
    8.5403   -0.7950    4.2306 N   0  0  0  0  0  0                  
    8.3995   -1.2477    5.4861 C   0  0  0  0  0  0                  
    7.9412   -0.4557    6.5298 C   0  0  0  0  0  0                  
    7.5815    0.8523    6.2551 C   0  0  0  0  0  0                  
    7.0833    1.5793    7.3294 N   0  0  0  0  0  0                  
    7.7050    1.3577    4.9511 C   0  0  0  0  0  0                  
    7.3198    2.7154    4.5839 C   0  0  0  0  0  0                  
    7.0162    3.7909    4.2824 N   0  0  0  0  0  0                  
    8.7583   -2.5779    5.5732 N   0  0  0  0  0  0                  
    8.5160   -3.4800    6.5286 C   0  0  0  0  0  0                  
    7.8806   -3.2554    7.5572 O   0  0  0  0  0  0                  
    9.0077   -4.8956    6.2468 C   0  0  0  0  0  0                  
   10.5141   -4.9861    6.0185 C   0  0  0  0  0  0                  
   11.0663   -4.6808    4.7643 C   0  0  0  0  0  0                  
   10.1985   -4.2685    3.7682 O   0  0  0  0  0  0                  
   10.7241   -3.7775    2.5369 C   0  0  0  0  0  0                  
   12.4518   -4.8046    4.5906 C   0  0  0  0  0  0                  
   13.2694   -5.1862    5.6548 C   0  0  0  0  0  0                  
   12.7275   -5.4814    6.9032 C   0  0  0  0  0  0                  
   11.3410   -5.3824    7.0753 C   0  0  0  0  0  0                  
   13.6131   -5.8422    7.8966 O   0  0  0  0  0  0                  
   13.1231   -6.5492    9.0337 C   0  0  0  0  0  0                  
    7.4884   -0.7920   -0.8518 H   0  0  0  0  0  0                  
    9.0767    1.3677    0.1177 H   0  0  0  0  0  0                  
    7.3379    1.1683    0.2101 H   0  0  0  0  0  0                  
    7.6952   -0.8538    1.7101 H   0  0  0  0  0  0                  
    9.4277   -0.5304    1.6927 H   0  0  0  0  0  0                  
    7.8456   -0.8443    7.5298 H   0  0  0  0  0  0                  
    7.0266    1.1502    8.2478 H   0  0  0  0  0  0                  
    6.6759    2.4996    7.1814 H   0  0  0  0  0  0                  
    9.2556   -2.8952    4.7548 H   0  0  0  0  0  0                  
    8.7103   -5.5662    7.0486 H   0  0  0  0  0  0                  
    8.4844   -5.2264    5.3552 H   0  0  0  0  0  0                  
   11.2734   -4.5492    1.9956 H   0  0  0  0  0  0                  
    9.9009   -3.4556    1.8987 H   0  0  0  0  0  0                  
   11.3728   -2.9136    2.6898 H   0  0  0  0  0  0                  
   12.9134   -4.5993    3.6369 H   0  0  0  0  0  0                  
   14.3381   -5.2639    5.5158 H   0  0  0  0  0  0                  
   10.8990   -5.6151    8.0313 H   0  0  0  0  0  0                  
   13.9627   -6.8230    9.6722 H   0  0  0  0  0  0                  
   12.4421   -5.9525    9.6389 H   0  0  0  0  0  0                  
   12.6215   -7.4725    8.7451 H   0  0  0  0  0  0                  
  1  2  1  0  0  0
  1 28  1  0  0  0
  2  3  1  0  0  0
  2 29  1  0  0  0
  2 30  1  0  0  0
  3  4  1  0  0  0
  3 31  1  0  0  0
  3 32  1  0  0  0
  4  5  1  0  0  0
  5 11  1  0  0  0
  5  6  2  0  0  0
  6  7  1  0  0  0
  7  8  2  0  0  0
  7 14  1  0  0  0
  8  9  1  0  0  0
  8 33  1  0  0  0
  9 10  1  0  0  0
  9 11  2  0  0  0
 10 34  1  0  0  0
 10 35  1  0  0  0
 11 12  1  0  0  0
 12 13  3  0  0  0
 14 15  1  0  0  0
 14 36  1  0  0  0
 15 16  2  0  0  0
 15 17  1  0  0  0
 17 18  1  0  0  0
 17 37  1  0  0  0
 17 38  1  0  0  0
 18 25  1  0  0  0
 18 19  2  0  0  0
 19 20  1  0  0  0
 19 22  1  0  0  0
 20 21  1  0  0  0
 21 39  1  0  0  0
 21 40  1  0  0  0
 21 41  1  0  0  0
 22 23  2  0  0  0
 22 42  1  0  0  0
 23 24  1  0  0  0
 23 43  1  0  0  0
 24 25  2  0  0  0
 24 26  1  0  0  0
 25 44  1  0  0  0
 26 27  1  0  0  0
 27 45  1  0  0  0
 27 46  1  0  0  0
 27 47  1  0  0  0
M  END
> <i_m_stars>
0

> <r_user_dG.exp>
-9.699398

$$$$
18630-1
                    3D
 Structure written by MMmdl.
 41 42  0  0  1  0            999 V2000
    9.1730    0.8126    0.5705 C   0  0  0  0  0  0                  
    9.0211    0.0378    1.8818 C   0  0  0  0  0  0                  
    8.4377    0.9157    2.8416 O   0  0  0  0  0  0                  
    8.2392    0.4762    4.1392 C   0  0  0  0  0  0                  
    8.6178   -0.7978    4.4325 N   0  0  0  0  0  0                  
    8.4047   -1.2553    5.6745 C   0  0  0  0  0  0                  
    7.8495   -0.4843    6.6835 C   0  0  0  0  0  0                  
    7.4712    0.8118    6.3860 C   0  0  0  0  0  0                  
    6.9076    1.5229    7.4374 N   0  0  0  0  0  0                  
    7.6586    1.3226    5.0910 C   0  0  0  0  0  0                  
    7.2690    2.6737    4.7037 C   0  0  0  0  0  0                  
    6.9632    3.7446    4.3871 N   0  0  0  0  0  0                  
    8.8542   -2.5508    5.8142 N   0  0  0  0  0  0                  
    8.5122   -3.4876    6.7050 C   0  0  0  0  0  0                  
    7.6263   -3.3303    7.5429 O   0  0  0  0  0  0                  
    9.2603   -4.8292    6.6677 C   0  0  0  0  0  0                  
   10.3350   -4.9375    5.5857 C   0  0  0  0  0  0                  
   11.6860   -4.9729    5.9403 C   0  0  0  0  0  0                  
   12.6681   -5.0369    4.9517 C   0  0  0  0  0  0                  
   12.3076   -5.0639    3.6023 C   0  0  0  0  0  0                  
   13.3769   -5.1229    2.5296 C   0  0  0  0  0  0                  
   10.9580   -5.0403    3.2457 C   0  0  0  0  0  0                  
    9.9764   -4.9767    4.2333 C   0  0  0  0  0  0                  
    9.6156    0.1871   -0.2040 H   0  0  0  0  0  0                  
    8.2027    1.1545    0.2096 H   0  0  0  0  0  0                  
    9.8074    1.6884    0.7033 H   0  0  0  0  0  0                  
    8.3867   -0.8387    1.7320 H   0  0  0  0  0  0                  
    9.9990   -0.3115    2.2212 H   0  0  0  0  0  0                  
    7.7111   -0.8784    7.6764 H   0  0  0  0  0  0                  
    6.8857    1.1165    8.3681 H   0  0  0  0  0  0                  
    6.5309    2.4560    7.2855 H   0  0  0  0  0  0                  
    9.5450   -2.7869    5.1236 H   0  0  0  0  0  0                  
    9.6949   -4.9981    7.6527 H   0  0  0  0  0  0                  
    8.5288   -5.6192    6.5185 H   0  0  0  0  0  0                  
   11.9811   -4.9489    6.9801 H   0  0  0  0  0  0                  
   13.7107   -5.0612    5.2352 H   0  0  0  0  0  0                  
   13.6338   -6.1594    2.3109 H   0  0  0  0  0  0                  
   13.0367   -4.6528    1.6059 H   0  0  0  0  0  0                  
   14.2825   -4.6040    2.8453 H   0  0  0  0  0  0                  
   10.6714   -5.0690    2.2034 H   0  0  0  0  0  0                  
    8.9342   -4.9484    3.9474 H   0  0  0  0  0  0                  
  1  2  1  0  0  0
  1 24  1  0  0  0
  1 25  1  0  0  0
  1 26  1  0  0  0
  2  3  1  0  0  0
  2 27  1  0  0  0
  2 28  1  0  0  0
  3  4  1  0  0  0
  4 10  1  0  0  0
  4  5  2  0  0  0
  5  6  1  0  0  0
  6  7  2  0  0  0
  6 13  1  0  0  0
  7  8  1  0  0  0
  7 29  1  0  0  0
  8  9  1  0  0  0
  8 10  2  0  0  0
  9 30  1  0  0  0
  9 31  1  0  0  0
 10 11  1  0  0  0
 11 12  3  0  0  0
 13 14  1  0  0  0
 13 32  1  0  0  0
 14 15  2  0  0  0
 14 16  1  0  0  0
 16 17  1  0  0  0
 16 33  1  0  0  0
 16 34  1  0  0  0
 17 23  1  0  0  0
 17 18  2  0  0  0
 18 19  1  0  0  0
 18 35  1  0  0  0
 19 20  2  0  0  0
 19 36  1  0  0  0
 20 21  1  0  0  0
 20 22  1  0  0  0
 21 37  1  0  0  0
 21 38  1  0  0  0
 21 39  1  0  0  0
 22 23  2  0  0  0
 22 40  1  0  0  0
 23 41  1  0  0  0
M  END
> <i_m_stars>
0

> <r_user_dG.exp>
-9.142359

$$$$
18639-1
                    3D
 Structure written by MMmdl.
 48 49  0  0  1  0            999 V2000
    9.8347   -0.1736    1.3674 C   0  0  0  0  0  0                  
    8.3427    0.0182    1.6477 C   0  0  0  0  0  0                  
    8.1730    0.9544    2.7116 O   0  0  0  0  0  0                  
    8.1328    0.5197    4.0256 C   0  0  0  0  0  0                  
    8.5046   -0.7659    4.2743 N   0  0  0  0  0  0                  
    8.3794   -1.2354    5.5241 C   0  0  0  0  0  0                  
    7.9231   -0.4620    6.5823 C   0  0  0  0  0  0                  
    7.5472    0.8453    6.3270 C   0  0  0  0  0  0                  
    7.0438    1.5507    7.4129 N   0  0  0  0  0  0                  
    7.6555    1.3691    5.0290 C   0  0  0  0  0  0                  
    7.2571    2.7283    4.6819 C   0  0  0  0  0  0                  
    6.9432    3.8050    4.3955 N   0  0  0  0  0  0                  
    8.7452   -2.5652    5.5852 N   0  0  0  0  0  0                  
    8.5097   -3.4827    6.5275 C   0  0  0  0  0  0                  
    7.8851   -3.2735    7.5650 O   0  0  0  0  0  0                  
    8.9953   -4.8942    6.2217 C   0  0  0  0  0  0                  
   10.5026   -4.9835    6.0052 C   0  0  0  0  0  0                  
   11.0614   -4.6927    4.7552 C   0  0  0  0  0  0                  
   10.1998   -4.2907    3.7490 O   0  0  0  0  0  0                  
   10.7278   -3.8239    2.5090 C   0  0  0  0  0  0                  
   12.4464   -4.8161    4.5964 C   0  0  0  0  0  0                  
   13.2875   -5.1739    5.6638 C   0  0  0  0  0  0                  
   14.7553   -5.2479    5.4306 N   0  3  0  0  0  0                  
   15.5265   -5.1900    6.3830 O   0  5  0  0  0  0                  
   15.1549   -5.3368    4.2725 O   0  0  0  0  0  0                  
   12.7135   -5.4536    6.9214 C   0  0  0  0  0  0                  
   11.3231   -5.3582    7.0699 C   0  0  0  0  0  0                  
   13.5389   -5.7950    7.9758 O   0  0  0  0  0  0                  
   13.0233   -6.5653    9.0595 C   0  0  0  0  0  0                  
    9.9920   -0.8425    0.5220 H   0  0  0  0  0  0                  
   10.2964    0.7857    1.1394 H   0  0  0  0  0  0                  
   10.3447   -0.5963    2.2328 H   0  0  0  0  0  0                  
    7.8648    0.4389    0.7621 H   0  0  0  0  0  0                  
    7.8340   -0.9314    1.8297 H   0  0  0  0  0  0                  
    7.8370   -0.8642    7.5775 H   0  0  0  0  0  0                  
    7.0104    1.1156    8.3304 H   0  0  0  0  0  0                  
    6.6304    2.4705    7.2779 H   0  0  0  0  0  0                  
    9.2259   -2.8626    4.7513 H   0  0  0  0  0  0                  
    8.6910   -5.5776    7.0099 H   0  0  0  0  0  0                  
    8.4741   -5.2075    5.3222 H   0  0  0  0  0  0                  
   11.3902   -2.9678    2.6462 H   0  0  0  0  0  0                  
   11.2624   -4.6114    1.9755 H   0  0  0  0  0  0                  
    9.9067   -3.4981    1.8699 H   0  0  0  0  0  0                  
   12.8893   -4.6128    3.6339 H   0  0  0  0  0  0                  
   10.8663   -5.5739    8.0225 H   0  0  0  0  0  0                  
   13.8416   -6.8197    9.7327 H   0  0  0  0  0  0                  
   12.2835   -6.0271    9.6505 H   0  0  0  0  0  0                  
   12.5893   -7.5022    8.7138 H   0  0  0  0  0  0                  
  1  2  1  0  0  0
  1 30  1  0  0  0
  1 31  1  0  0  0
  1 32  1  0  0  0
  2  3  1  0  0  0
  2 33  1  0  0  0
  2 34  1  0  0  0
  3  4  1  0  0  0
  4 10  1  0  0  0
  4  5  2  0  0  0
  5  6  1  0  0  0
  6  7  2  0  0  0
  6 13  1  0  0  0
  7  8  1  0  0  0
  7 35  1  0  0  0
  8  9  1  0  0  0
  8 10  2  0  0  0
  9 36  1  0  0  0
  9 37  1  0  0  0
 10 11  1  0  0  0
 11 12  3  0  0  0
 13 14  1  0  0  0
 13 38  1  0  0  0
 14 15  2  0  0  0
 14 16  1  0  0  0
 16 17  1  0  0  0
 16 39  1  0  0  0
 16 40  1  0  0  0
 17 27  1  0  0  0
 17 18  2  0  0  0
 18 19  1  0  0  0
 18 21  1  0  0  0
 19 20  1  0  0  0
 20 41  1  0  0  0
 20 42  1  0  0  0
 20 43  1  0  0  0
 21 22  2  0  0  0
 21 44  1  0  0  0
 22 23  1  0  0  0
 22 26  1  0  0  0
 23 24  1  0  0  0
 23 25  2  0  0  0
 26 27  2  0  0  0
 26 28  1  0  0  0
 27 45  1  0  0  0
 28 29  1  0  0  0
 29 46  1  0  0  0
 29 47  1  0  0  0
 29 48  1  0  0  0
M  CHG  2  23   1  24  -1
M  END
> <i_m_stars>
0

> <r_user_dG.exp>
-9.740725

$$$$
18631-1
                    3D
 Structure written by MMmdl.
 42 43  0  0  1  0            999 V2000
    9.1632    0.9147    0.4290 C   0  0  0  0  0  0                  
    8.9862    0.1121    1.7200 C   0  0  0  0  0  0                  
    8.4302    0.9829    2.7011 O   0  0  0  0  0  0                  
    8.2418    0.5262    3.9943 C   0  0  0  0  0  0                  
    8.5912   -0.7621    4.2598 N   0  0  0  0  0  0                  
    8.3936   -1.2334    5.5007 C   0  0  0  0  0  0                  
    7.8905   -0.4572    6.5349 C   0  0  0  0  0  0                  
    7.5338    0.8509    6.2623 C   0  0  0  0  0  0                  
    7.0069    1.5640    7.3324 N   0  0  0  0  0  0                  
    7.6977    1.3709    4.9682 C   0  0  0  0  0  0                  
    7.3132    2.7293    4.6033 C   0  0  0  0  0  0                  
    7.0099    3.8056    4.3041 N   0  0  0  0  0  0                  
    8.7539   -2.5623    5.5858 N   0  0  0  0  0  0                  
    8.5116   -3.4691    6.5362 C   0  0  0  0  0  0                  
    7.8688   -3.2528    7.5619 O   0  0  0  0  0  0                  
    9.0108   -4.8812    6.2499 C   0  0  0  0  0  0                  
   10.5060   -4.9623    5.9483 C   0  0  0  0  0  0                  
   10.9994   -4.6617    4.6671 C   0  0  0  0  0  0                  
   10.0895   -4.2419    3.7135 O   0  0  0  0  0  0                  
   10.5675   -3.6644    2.5008 C   0  0  0  0  0  0                  
   12.3732   -4.8006    4.4204 C   0  0  0  0  0  0                  
   13.2436   -5.1920    5.4371 C   0  0  0  0  0  0                  
   12.7486   -5.4603    6.7104 C   0  0  0  0  0  0                  
   11.3836   -5.3528    6.9646 C   0  0  0  0  0  0                  
    9.5877    0.2970   -0.3617 H   0  0  0  0  0  0                  
    8.2044    1.2958    0.0769 H   0  0  0  0  0  0                  
    9.8237    1.7672    0.5856 H   0  0  0  0  0  0                  
    8.3252   -0.7407    1.5501 H   0  0  0  0  0  0                  
    9.9536   -0.2741    2.0493 H   0  0  0  0  0  0                  
    7.7597   -0.8570    7.5263 H   0  0  0  0  0  0                  
    6.9619    1.1365    8.2519 H   0  0  0  0  0  0                  
    6.6188    2.4935    7.1906 H   0  0  0  0  0  0                  
    9.2507   -2.8781    4.7669 H   0  0  0  0  0  0                  
    8.7586   -5.5437    7.0744 H   0  0  0  0  0  0                  
    8.4495   -5.2277    5.3885 H   0  0  0  0  0  0                  
   11.2205   -2.8101    2.6889 H   0  0  0  0  0  0                  
   11.0980   -4.3949    1.8882 H   0  0  0  0  0  0                  
    9.7202   -3.3036    1.9176 H   0  0  0  0  0  0                  
   12.7845   -4.6022    3.4429 H   0  0  0  0  0  0                  
   14.3021   -5.2880    5.2378 H   0  0  0  0  0  0                  
   13.4205   -5.7705    7.4984 H   0  0  0  0  0  0                  
   11.0095   -5.5913    7.9514 H   0  0  0  0  0  0                  
  1  2  1  0  0  0
  1 25  1  0  0  0
  1 26  1  0  0  0
  1 27  1  0  0  0
  2  3  1  0  0  0
  2 28  1  0  0  0
  2 29  1  0  0  0
  3  4  1  0  0  0
  4 10  1  0  0  0
  4  5  2  0  0  0
  5  6  1  0  0  0
  6  7  2  0  0  0
  6 13  1  0  0  0
  7  8  1  0  0  0
  7 30  1  0  0  0
  8  9  1  0  0  0
  8 10  2  0  0  0
  9 31  1  0  0  0
  9 32  1  0  0  0
 10 11  1  0  0  0
 11 12  3  0  0  0
 13 14  1  0  0  0
 13 33  1  0  0  0
 14 15  2  0  0  0
 14 16  1  0  0  0
 16 17  1  0  0  0
 16 34  1  0  0  0
 16 35  1  0  0  0
 17 24  1  0  0  0
 17 18  2  0  0  0
 18 19  1  0  0  0
 18 21  1  0  0  0
 19 20  1  0  0  0
 20 36  1  0  0  0
 20 37  1  0  0  0
 20 38  1  0  0  0
 21 22  2  0  0  0
 21 39  1  0  0  0
 22 23  1  0  0  0
 22 40  1  0  0  0
 23 24  2  0  0  0
 23 41  1  0  0  0
 24 42  1  0  0  0
M  END
> <i_m_stars>
0

> <r_user_dG.exp>
-9.413821

$$$$
18632-1
                    3D
 Structure written by MMmdl.
 42 43  0  0  1  0            999 V2000
    7.9393   -0.9997    1.4153 C   0  0  0  0  0  0                  
    8.9997   -0.0177    1.9320 C   0  0  0  0  0  0                  
    8.4430    0.8731    2.9025 O   0  0  0  0  0  0                  
    8.2485    0.4574    4.2094 C   0  0  0  0  0  0                  
    8.6529   -0.8000    4.5291 N   0  0  0  0  0  0                  
    8.4296   -1.2464    5.7701 C   0  0  0  0  0  0                  
    7.8455   -0.4787    6.7628 C   0  0  0  0  0  0                  
    7.4511    0.8076    6.4441 C   0  0  0  0  0  0                  
    6.8622    1.5182    7.4806 N   0  0  0  0  0  0                  
    7.6464    1.3071    5.1448 C   0  0  0  0  0  0                  
    7.2436    2.6484    4.7374 C   0  0  0  0  0  0                  
    6.9278    3.7119    4.4051 N   0  0  0  0  0  0                  
    8.8965   -2.5308    5.9198 N   0  0  0  0  0  0                  
    8.5036   -3.4923    6.7591 C   0  0  0  0  0  0                  
    7.5764   -3.3509    7.5533 O   0  0  0  0  0  0                  
    9.2434   -4.8391    6.7113 C   0  0  0  0  0  0                  
   10.3188   -4.9444    5.6301 C   0  0  0  0  0  0                  
   11.6719   -4.8064    5.9593 C   0  0  0  0  0  0                  
   12.6675   -4.9651    4.9995 C   0  0  0  0  0  0                  
   13.9667   -4.8538    5.4439 O   0  0  0  0  0  0                  
   15.0283   -4.9791    4.5044 C   0  0  0  0  0  0                  
   12.2923   -5.2367    3.6753 C   0  0  0  0  0  0                  
   10.9450   -5.3525    3.3306 C   0  0  0  0  0  0                  
    9.9606   -5.2095    4.3071 C   0  0  0  0  0  0                  
    8.3377   -1.6242    0.6164 H   0  0  0  0  0  0                  
    7.5889   -1.6617    2.2068 H   0  0  0  0  0  0                  
    7.0744   -0.4657    1.0222 H   0  0  0  0  0  0                  
    9.8827   -0.5390    2.3088 H   0  0  0  0  0  0                  
    9.3520    0.5922    1.0997 H   0  0  0  0  0  0                  
    7.6981   -0.8688    7.7558 H   0  0  0  0  0  0                  
    6.8514    1.1251    8.4173 H   0  0  0  0  0  0                  
    6.4883    2.4509    7.3193 H   0  0  0  0  0  0                  
    9.6131   -2.7474    5.2494 H   0  0  0  0  0  0                  
    9.6747   -5.0187    7.6954 H   0  0  0  0  0  0                  
    8.5097   -5.6239    6.5477 H   0  0  0  0  0  0                  
   11.9693   -4.5991    6.9770 H   0  0  0  0  0  0                  
   15.9826   -4.8855    5.0217 H   0  0  0  0  0  0                  
   15.0200   -5.9514    4.0138 H   0  0  0  0  0  0                  
   14.9858   -4.1939    3.7481 H   0  0  0  0  0  0                  
   13.0355   -5.3672    2.9041 H   0  0  0  0  0  0                  
   10.6641   -5.5621    2.3075 H   0  0  0  0  0  0                  
    8.9203   -5.3100    4.0295 H   0  0  0  0  0  0                  
  1  2  1  0  0  0
  1 25  1  0  0  0
  1 26  1  0  0  0
  1 27  1  0  0  0
  2  3  1  0  0  0
  2 28  1  0  0  0
  2 29  1  0  0  0
  3  4  1  0  0  0
  4 10  1  0  0  0
  4  5  2  0  0  0
  5  6  1  0  0  0
  6  7  2  0  0  0
  6 13  1  0  0  0
  7  8  1  0  0  0
  7 30  1  0  0  0
  8  9  1  0  0  0
  8 10  2  0  0  0
  9 31  1  0  0  0
  9 32  1  0  0  0
 10 11  1  0  0  0
 11 12  3  0  0  0
 13 14  1  0  0  0
 13 33  1  0  0  0
 14 15  2  0  0  0
 14 16  1  0  0  0
 16 17  1  0  0  0
 16 34  1  0  0  0
 16 35  1  0  0  0
 17 24  1  0  0  0
 17 18  2  0  0  0
 18 19  1  0  0  0
 18 36  1  0  0  0
 19 20  1  0  0  0
 19 22  2  0  0  0
 20 21  1  0  0  0
 21 37  1  0  0  0
 21 38  1  0  0  0
 21 39  1  0  0  0
 22 23  1  0  0  0
 22 40  1  0  0  0
 23 24  2  0  0  0
 23 41  1  0  0  0
 24 42  1  0  0  0
M  END
> <i_m_stars>
0

> <r_user_dG.exp>
-9.083236

$$$$
18636-1
                    3D
 Structure written by MMmdl.
 38 39  0  0  1  0            999 V2000
    9.0953    0.9977    0.4782 C   0  0  0  0  0  0                  
    8.9414    0.1732    1.7586 C   0  0  0  0  0  0                  
    8.3976    1.0262    2.7630 O   0  0  0  0  0  0                  
    8.2220    0.5454    4.0493 C   0  0  0  0  0  0                  
    8.5865   -0.7431    4.2897 N   0  0  0  0  0  0                  
    8.3974   -1.2405    5.5192 C   0  0  0  0  0  0                  
    7.8826   -0.4960    6.5710 C   0  0  0  0  0  0                  
    7.5105    0.8152    6.3248 C   0  0  0  0  0  0                  
    6.9704    1.5032    7.4056 N   0  0  0  0  0  0                  
    7.6709    1.3640    5.0412 C   0  0  0  0  0  0                  
    7.2752    2.7252    4.7000 C   0  0  0  0  0  0                  
    6.9636    3.8036    4.4180 N   0  0  0  0  0  0                  
    8.7797   -2.5643    5.5535 N   0  0  0  0  0  0                  
    8.5739   -3.5065    6.4775 C   0  0  0  0  0  0                  
    7.9847   -3.3242    7.5400 O   0  0  0  0  0  0                  
    9.0500   -4.9092    6.1153 C   0  0  0  0  0  0                  
   10.5684   -5.0239    5.9990 C   0  0  0  0  0  0                  
   11.3932   -5.1240    7.1334 C   0  0  0  0  0  0                  
   10.6773   -5.1380    8.9010 Br  0  0  0  0  0  0                  
   12.7774   -5.2070    6.9842 C   0  0  0  0  0  0                  
   13.3505   -5.2035    5.7129 C   0  0  0  0  0  0                  
   12.5386   -5.1057    4.5860 C   0  0  0  0  0  0                  
   13.3213   -5.0888    2.8528 Br  0  0  0  0  0  0                  
   11.1554   -5.0138    4.7283 C   0  0  0  0  0  0                  
    9.5073    0.3934   -0.3294 H   0  0  0  0  0  0                  
    8.1303    1.3829    0.1485 H   0  0  0  0  0  0                  
    9.7577    1.8480    0.6371 H   0  0  0  0  0  0                  
    8.2804   -0.6787    1.5843 H   0  0  0  0  0  0                  
    9.9148   -0.2163    2.0660 H   0  0  0  0  0  0                  
    7.7538   -0.9206    7.5521 H   0  0  0  0  0  0                  
    6.9554    1.0760    8.3272 H   0  0  0  0  0  0                  
    6.5875    2.4372    7.2783 H   0  0  0  0  0  0                  
    9.2400   -2.8159    4.6962 H   0  0  0  0  0  0                  
    8.6836   -5.6199    6.8535 H   0  0  0  0  0  0                  
    8.5694   -5.1784    5.1792 H   0  0  0  0  0  0                  
   13.4050   -5.2754    7.8618 H   0  0  0  0  0  0                  
   14.4226   -5.2703    5.5955 H   0  0  0  0  0  0                  
   10.5479   -4.9153    3.8400 H   0  0  0  0  0  0                  
  1  2  1  0  0  0
  1 25  1  0  0  0
  1 26  1  0  0  0
  1 27  1  0  0  0
  2  3  1  0  0  0
  2 28  1  0  0  0
  2 29  1  0  0  0
  3  4  1  0  0  0
  4 10  1  0  0  0
  4  5  2  0  0  0
  5  6  1  0  0  0
  6  7  2  0  0  0
  6 13  1  0  0  0
  7  8  1  0  0  0
  7 30  1  0  0  0
  8  9  1  0  0  0
  8 10  2  0  0  0
  9 31  1  0  0  0
  9 32  1  0  0  0
 10 11  1  0  0  0
 11 12  3  0  0  0
 13 14  1  0  0  0
 13 33  1  0  0  0
 14 15  2  0  0  0
 14 16  1  0  0  0
 16 17  1  0  0  0
 16 34  1  0  0  0
 16 35  1  0  0  0
 17 24  1  0  0  0
 17 18  2  0  0  0
 18 19  1  0  0  0
 18 20  1  0  0  0
 20 21  2  0  0  0
 20 36  1  0  0  0
 21 22  1  0  0  0
 21 37  1  0  0  0
 22 23  1  0  0  0
 22 24  2  0  0  0
 24 38  1  0  0  0
M  END
> <i_m_stars>
0

> <r_user_dG.exp>
-7.512318

$$$$
18626-1
                    3D
 Structure written by MMmdl.
 38 39  0  0  1  0            999 V2000
    9.0856    0.9943    0.4937 C   0  0  0  0  0  0                  
    8.9384    0.1821    1.7828 C   0  0  0  0  0  0                  
    8.3856    1.0403    2.7772 O   0  0  0  0  0  0                  
    8.2129    0.5719    4.0685 C   0  0  0  0  0  0                  
    8.5882   -0.7112    4.3243 N   0  0  0  0  0  0                  
    8.3999   -1.1935    5.5608 C   0  0  0  0  0  0                  
    7.8796   -0.4406    6.6019 C   0  0  0  0  0  0                  
    7.4964    0.8617    6.3389 C   0  0  0  0  0  0                  
    6.9483    1.5498    7.4133 N   0  0  0  0  0  0                  
    7.6531    1.3975    5.0497 C   0  0  0  0  0  0                  
    7.2432    2.7503    4.6925 C   0  0  0  0  0  0                  
    6.9200    3.8219    4.3977 N   0  0  0  0  0  0                  
    8.7841   -2.5142    5.6228 N   0  0  0  0  0  0                  
    8.5012   -3.4557    6.5278 C   0  0  0  0  0  0                  
    7.8395   -3.2684    7.5466 O   0  0  0  0  0  0                  
    8.9693   -4.8679    6.1931 C   0  0  0  0  0  0                  
   10.4208   -4.9472    5.7407 C   0  0  0  0  0  0                  
   11.4443   -5.0310    6.6883 C   0  0  0  0  0  0                  
   12.7759   -5.0714    6.2813 C   0  0  0  0  0  0                  
   14.0338   -5.1314    7.4590 Cl  0  0  0  0  0  0                  
   13.0902   -5.0469    4.9230 C   0  0  0  0  0  0                  
   12.0730   -4.9731    3.9695 C   0  0  0  0  0  0                  
   10.7399   -4.9207    4.3780 C   0  0  0  0  0  0                  
    9.5048    0.3855   -0.3070 H   0  0  0  0  0  0                  
    8.1172    1.3662    0.1588 H   0  0  0  0  0  0                  
    9.7393    1.8528    0.6443 H   0  0  0  0  0  0                  
    8.2856   -0.6778    1.6170 H   0  0  0  0  0  0                  
    9.9152   -0.1943    2.0952 H   0  0  0  0  0  0                  
    7.7540   -0.8550    7.5881 H   0  0  0  0  0  0                  
    6.9293    1.1219    8.3343 H   0  0  0  0  0  0                  
    6.5561    2.4798    7.2821 H   0  0  0  0  0  0                  
    9.3136   -2.7688    4.8101 H   0  0  0  0  0  0                  
    8.8121   -5.5282    7.0442 H   0  0  0  0  0  0                  
    8.3123   -5.2044    5.4001 H   0  0  0  0  0  0                  
   11.2133   -5.0703    7.7419 H   0  0  0  0  0  0                  
   14.1251   -5.0777    4.6147 H   0  0  0  0  0  0                  
   12.3190   -4.9497    2.9161 H   0  0  0  0  0  0                  
    9.9600   -4.8629    3.6305 H   0  0  0  0  0  0                  
  1  2  1  0  0  0
  1 24  1  0  0  0
  1 25  1  0  0  0
  1 26  1  0  0  0
  2  3  1  0  0  0
  2 27  1  0  0  0
  2 28  1  0  0  0
  3  4  1  0  0  0
  4 10  1  0  0  0
  4  5  2  0  0  0
  5  6  1  0  0  0
  6  7  2  0  0  0
  6 13  1  0  0  0
  7  8  1  0  0  0
  7 29  1  0  0  0
  8  9  1  0  0  0
  8 10  2  0  0  0
  9 30  1  0  0  0
  9 31  1  0  0  0
 10 11  1  0  0  0
 11 12  3  0  0  0
 13 14  1  0  0  0
 13 32  1  0  0  0
 14 15  2  0  0  0
 14 16  1  0  0  0
 16 17  1  0  0  0
 16 33  1  0  0  0
 16 34  1  0  0  0
 17 23  1  0  0  0
 17 18  2  0  0  0
 18 19  1  0  0  0
 18 35  1  0  0  0
 19 20  1  0  0  0
 19 21  2  0  0  0
 21 22  1  0  0  0
 21 36  1  0  0  0
 22 23  2  0  0  0
 22 37  1  0  0  0
 23 38  1  0  0  0
M  END
> <i_m_stars>
0

> <r_user_dG.exp>
-8.872536

$$$$